(PID.TID 0000.0001) 
(PID.TID 0000.0001) // ======================================================
(PID.TID 0000.0001) //                      MITgcm UV
(PID.TID 0000.0001) //                      =========
(PID.TID 0000.0001) // ======================================================
(PID.TID 0000.0001) // execution environment starting up...
(PID.TID 0000.0001) 
(PID.TID 0000.0001) // MITgcmUV version:  checkpoint68w
(PID.TID 0000.0001) // Build user:        shreyas
(PID.TID 0000.0001) // Build host:        sverdrup.oden.utexas.edu
(PID.TID 0000.0001) // Build date:        Mon Apr 15 11:23:12 AM CDT 2024
(PID.TID 0000.0001) 
(PID.TID 0000.0001) // =======================================================
(PID.TID 0000.0001) // Execution Environment parameter file "eedata"
(PID.TID 0000.0001) // =======================================================
(PID.TID 0000.0001) ># Example "eedata" file
(PID.TID 0000.0001) ># Lines beginning "#" are comments
(PID.TID 0000.0001) >#  nTx      :: No. threads per process in X
(PID.TID 0000.0001) >#  nTy      :: No. threads per process in Y
(PID.TID 0000.0001) ># debugMode :: print debug msg (sequence of S/R calls)
(PID.TID 0000.0001) > &EEPARMS
(PID.TID 0000.0001) > nTx=1,
(PID.TID 0000.0001) > nTy=1,
(PID.TID 0000.0001) > /
(PID.TID 0000.0001) ># Note: Some systems use & as the namelist terminator (as shown here).
(PID.TID 0000.0001) >#       Other systems use a / character.
(PID.TID 0000.0001) 
(PID.TID 0000.0001) // =======================================================
(PID.TID 0000.0001) // Computational Grid Specification ( see files "SIZE.h" )
(PID.TID 0000.0001) //                                  ( and "eedata"       )
(PID.TID 0000.0001) // =======================================================
(PID.TID 0000.0001)      nPx =    1 ; /* No. processes in X */
(PID.TID 0000.0001)      nPy =    1 ; /* No. processes in Y */
(PID.TID 0000.0001)      nSx =    2 ; /* No. tiles in X per process */
(PID.TID 0000.0001)      nSy =    1 ; /* No. tiles in Y per process */
(PID.TID 0000.0001)      sNx =   20 ; /* Tile size in X */
(PID.TID 0000.0001)      sNy =   20 ; /* Tile size in Y */
(PID.TID 0000.0001)      OLx =    3 ; /* Tile overlap distance in X */
(PID.TID 0000.0001)      OLy =    3 ; /* Tile overlap distance in Y */
(PID.TID 0000.0001)      nTx =    1 ; /* No. threads in X per process */
(PID.TID 0000.0001)      nTy =    1 ; /* No. threads in Y per process */
(PID.TID 0000.0001)       Nr =    1 ; /* No. levels in the vertical   */
(PID.TID 0000.0001)       Nx =   40 ; /* Total domain size in X ( = nPx*nSx*sNx ) */
(PID.TID 0000.0001)       Ny =   20 ; /* Total domain size in Y ( = nPy*nSy*sNy ) */
(PID.TID 0000.0001)   nTiles =    2 ; /* Total no. tiles per process ( = nSx*nSy ) */
(PID.TID 0000.0001)   nProcs =    1 ; /* Total no. processes ( = nPx*nPy ) */
(PID.TID 0000.0001) nThreads =    1 ; /* Total no. threads per process ( = nTx*nTy ) */
(PID.TID 0000.0001) usingMPI =    F ; /* Flag used to control whether MPI is in use */
(PID.TID 0000.0001)                   /*  note: To execute a program with MPI calls */
(PID.TID 0000.0001)                   /*  it must be launched appropriately e.g     */
(PID.TID 0000.0001)                   /*  "mpirun -np 64 ......"                    */
(PID.TID 0000.0001) useCoupler=   F ; /* Flag used to control communications with   */
(PID.TID 0000.0001)                   /*  other model components, through a coupler */
(PID.TID 0000.0001) useNest2W_parent =    F ;/* Control 2-W Nesting comm */
(PID.TID 0000.0001) useNest2W_child  =    F ;/* Control 2-W Nesting comm */
(PID.TID 0000.0001) debugMode =    F ; /* print debug msg. (sequence of S/R calls)  */
(PID.TID 0000.0001) printMapIncludesZeros=    F ; /* print zeros in Std.Output maps */
(PID.TID 0000.0001) maxLengthPrt1D=   65 /* maxLength of 1D array printed to StdOut */
(PID.TID 0000.0001) 
(PID.TID 0000.0001) // ======================================================
(PID.TID 0000.0001) // Mapping of tiles to threads
(PID.TID 0000.0001) // ======================================================
(PID.TID 0000.0001) // -o- Thread   1, tiles (   1:   2,   1:   1)
(PID.TID 0000.0001) 
(PID.TID 0000.0001) // ======================================================
(PID.TID 0000.0001) // Tile <-> Tile connectvity table
(PID.TID 0000.0001) // ======================================================
(PID.TID 0000.0001) // Tile number: 000001 (process no. = 000000)
(PID.TID 0000.0001) //        WEST: Tile = 000002, Process = 000000, Comm = put
(PID.TID 0000.0001) //                bi = 000002, bj = 000001
(PID.TID 0000.0001) //        EAST: Tile = 000002, Process = 000000, Comm = put
(PID.TID 0000.0001) //                bi = 000002, bj = 000001
(PID.TID 0000.0001) //       SOUTH: Tile = 000001, Process = 000000, Comm = put
(PID.TID 0000.0001) //                bi = 000001, bj = 000001
(PID.TID 0000.0001) //       NORTH: Tile = 000001, Process = 000000, Comm = put
(PID.TID 0000.0001) //                bi = 000001, bj = 000001
(PID.TID 0000.0001) // Tile number: 000002 (process no. = 000000)
(PID.TID 0000.0001) //        WEST: Tile = 000001, Process = 000000, Comm = put
(PID.TID 0000.0001) //                bi = 000001, bj = 000001
(PID.TID 0000.0001) //        EAST: Tile = 000001, Process = 000000, Comm = put
(PID.TID 0000.0001) //                bi = 000001, bj = 000001
(PID.TID 0000.0001) //       SOUTH: Tile = 000002, Process = 000000, Comm = put
(PID.TID 0000.0001) //                bi = 000002, bj = 000001
(PID.TID 0000.0001) //       NORTH: Tile = 000002, Process = 000000, Comm = put
(PID.TID 0000.0001) //                bi = 000002, bj = 000001
(PID.TID 0000.0001) 
(PID.TID 0000.0001)  INI_PARMS: opening model parameter file "data"
(PID.TID 0000.0001)  OPEN_COPY_DATA_FILE: opening file data
(PID.TID 0000.0001) // =======================================================
(PID.TID 0000.0001) // Parameter file "data"
(PID.TID 0000.0001) // =======================================================
(PID.TID 0000.0001) ># Model parameters
(PID.TID 0000.0001) ># Continuous equation parameters
(PID.TID 0000.0001) > &PARM01
(PID.TID 0000.0001) > tRef=20.,
(PID.TID 0000.0001) > sRef=10.,
(PID.TID 0000.0001) > gravity=9.81,
(PID.TID 0000.0001) > hFacMin=.05,
(PID.TID 0000.0001) > hFacMindz=50.,
(PID.TID 0000.0001) > momStepping=.FALSE.,
(PID.TID 0000.0001) > tempStepping=.FALSE.,
(PID.TID 0000.0001) > saltStepping=.FALSE.,
(PID.TID 0000.0001) > readBinaryPrec=64,
(PID.TID 0000.0001) > writeBinaryPrec=64,
(PID.TID 0000.0001) > globalFiles=.FALSE.,
(PID.TID 0000.0001) >#debugLevel=4,
(PID.TID 0000.0001) > /
(PID.TID 0000.0001) >
(PID.TID 0000.0001) ># Elliptic solver parameters
(PID.TID 0000.0001) > &PARM02
(PID.TID 0000.0001) > /
(PID.TID 0000.0001) >
(PID.TID 0000.0001) ># Time stepping parameters
(PID.TID 0000.0001) > &PARM03
(PID.TID 0000.0001) > startTime=0.,
(PID.TID 0000.0001) > nTimeSteps = 3,
(PID.TID 0000.0001) ># endTime=6307200000.,
(PID.TID 0000.0001) ># endTime=8640000000.,
(PID.TID 0000.0001) > deltaT=6307200.,
(PID.TID 0000.0001) ># pChkptFreq=2592000.,
(PID.TID 0000.0001) ># chkptFreq=120000.,
(PID.TID 0000.0001) ># dumpFreq=2592000.,
(PID.TID 0000.0001) > monitorFreq=0.,
(PID.TID 0000.0001) > externForcingCycle=18921600.
(PID.TID 0000.0001) > /
(PID.TID 0000.0001) >
(PID.TID 0000.0001) ># Gridding parameters
(PID.TID 0000.0001) > &PARM04
(PID.TID 0000.0001) > usingCartesianGrid=.TRUE.,
(PID.TID 0000.0001) > delX=40*2.e3,
(PID.TID 0000.0001) > delY=20*2.e3,
(PID.TID 0000.0001) > delZ=1800.,
(PID.TID 0000.0001) > /
(PID.TID 0000.0001) >
(PID.TID 0000.0001) > &PARM05
(PID.TID 0000.0001) > bathyFile='topog.box',
(PID.TID 0000.0001) > /
(PID.TID 0000.0001) 
(PID.TID 0000.0001)  INI_PARMS ; starts to read PARM01
(PID.TID 0000.0001)  INI_PARMS ; read PARM01 : OK
(PID.TID 0000.0001) S/R INI_PARMS: No request for barotropic solver
(PID.TID 0000.0001) S/R INI_PARMS: => Use implicitFreeSurface as default
(PID.TID 0000.0001)  INI_PARMS ; starts to read PARM02
(PID.TID 0000.0001)  INI_PARMS ; read PARM02 : OK
(PID.TID 0000.0001)  INI_PARMS ; starts to read PARM03
(PID.TID 0000.0001)  INI_PARMS ; read PARM03 : OK
(PID.TID 0000.0001)  INI_PARMS ; starts to read PARM04
(PID.TID 0000.0001)  INI_PARMS ; read PARM04 : OK
(PID.TID 0000.0001)  INI_PARMS ; starts to read PARM05
(PID.TID 0000.0001)  INI_PARMS ; read PARM05 : OK
(PID.TID 0000.0001)  INI_PARMS: finished reading file "data"
(PID.TID 0000.0001)  PACKAGES_BOOT: opening data.pkg
(PID.TID 0000.0001)  OPEN_COPY_DATA_FILE: opening file data.pkg
(PID.TID 0000.0001) // =======================================================
(PID.TID 0000.0001) // Parameter file "data.pkg"
(PID.TID 0000.0001) // =======================================================
(PID.TID 0000.0001) ># Packages
(PID.TID 0000.0001) > &PACKAGES
(PID.TID 0000.0001) ># useMNC=.TRUE.,
(PID.TID 0000.0001) > useStreamIce= .TRUE.,
(PID.TID 0000.0001) > useDiagnostics= .FALSE.,
(PID.TID 0000.0001) > useGrdchk = .TRUE.,
(PID.TID 0000.0001) > /
(PID.TID 0000.0001) 
(PID.TID 0000.0001)  PACKAGES_BOOT: finished reading data.pkg
(PID.TID 0000.0001)  PACKAGES_BOOT: On/Off package Summary
 --------  pkgs with a standard "usePKG" On/Off switch in "data.pkg":  --------
 pkg/autodiff             compiled   and   used ( useAUTODIFF              = T )
 pkg/grdchk               compiled   and   used ( useGrdchk                = T )
 pkg/ctrl                 compiled   and   used ( useCTRL                  = T )
 pkg/streamice            compiled   and   used ( useStreamIce             = T )
 pkg/diagnostics          compiled but not used ( useDiagnostics           = F )
 -------- pkgs without standard "usePKG" On/Off switch in "data.pkg":  --------
 pkg/monitor              compiled but not used ( monitorFreq > 0.         = F )
 pkg/debug                compiled but not used ( debugMode                = F )
 pkg/rw                   compiled   and   used
 pkg/mdsio                compiled   and   used
 pkg/autodiff             compiled   and   used
 pkg/cost                 compiled   and   used
(PID.TID 0000.0001)  PACKAGES_BOOT: End of package Summary
(PID.TID 0000.0001) 
(PID.TID 0000.0001) STREAMICE_READPARMS: opening data.streamice
(PID.TID 0000.0001)  OPEN_COPY_DATA_FILE: opening file data.streamice
(PID.TID 0000.0001) // =======================================================
(PID.TID 0000.0001) // Parameter file "data.streamice"
(PID.TID 0000.0001) // =======================================================
(PID.TID 0000.0001) ># ===================================
(PID.TID 0000.0001) ># | Parameters for STREAMICE package |
(PID.TID 0000.0001) ># ===================================
(PID.TID 0000.0001) > &STREAMICE_PARM01
(PID.TID 0000.0001) > streamice_density = 917.,
(PID.TID 0000.0001) > streamice_density_ocean_avg = 1028.,
(PID.TID 0000.0001) > B_glen_isothermal = 700.,
(PID.TID 0000.0001) > C_basal_fric_const = 5.,
(PID.TID 0000.0001) > n_glen = 3.0,
(PID.TID 0000.0001) > n_basal_friction = 1.,
(PID.TID 0000.0001) > eps_glen_min = 1.0e-12,
(PID.TID 0000.0001) > eps_u_min = 1.0e-12,
(PID.TID 0000.0001) > streamice_cg_tol = 1.0e-6,
(PID.TID 0000.0001) > STREAMICE_lower_cg_tol = .false.,
(PID.TID 0000.0001) > streamice_nonlin_tol = 1.0e-20,
(PID.TID 0000.0001) > streamice_nonlin_tol_fp = 1.e-7,
(PID.TID 0000.0001) > streamice_max_cg_iter = 500,
(PID.TID 0000.0001) > streamice_max_nl_iter = 100,
(PID.TID 0000.0001) > STREAMICE_move_front = .false.,
(PID.TID 0000.0001) > STREAMICE_calve_to_mask = .false.,
(PID.TID 0000.0001) > streamice_CFL_factor = 0.5,
(PID.TID 0000.0001) > STREAMICE_dump_mdsio = .true.,
(PID.TID 0000.0001) > streamice_bg_surf_slope_x = 0.,
(PID.TID 0000.0001) > STREAMICEthickInit='PARAM',
(PID.TID 0000.0001) > STREAMICEthickFile='h_init.box',
(PID.TID 0000.0001) > STREAMICEtopogFile='topog.box',
(PID.TID 0000.0001) > STREAMICEbasalTracConfig='UNIFORM',
(PID.TID 0000.0001) > STREAMICEGlenConstConfig='UNIFORM',
(PID.TID 0000.0001) > STREAMICEBdotConfig='FILE',
(PID.TID 0000.0001) > /
(PID.TID 0000.0001) >
(PID.TID 0000.0001) >#PETSC_SOLVER_TYPE = 'BICG',
(PID.TID 0000.0001) >#PETSC_PRECOND_TYPE = 'BLOCKJACOBI',
(PID.TID 0000.0001) >#&
(PID.TID 0000.0001) >
(PID.TID 0000.0001) >
(PID.TID 0000.0001) > &STREAMICE_PARM02
(PID.TID 0000.0001) > shelf_max_draft = 1300.0,
(PID.TID 0000.0001) > shelf_min_draft = 300.0,
(PID.TID 0000.0001) > shelf_edge_pos = 70.0e3,
(PID.TID 0000.0001) > shelf_slope_scale = 62.0e3,
(PID.TID 0000.0001) > shelf_flat_width = 20.0e3,
(PID.TID 0000.0001) > /
(PID.TID 0000.0001) >
(PID.TID 0000.0001) > &STREAMICE_PARMOAD
(PID.TID 0000.0001) > streamice_nonlin_tol_adjoint = 1.e-8,
(PID.TID 0000.0001) > /
(PID.TID 0000.0001) >
(PID.TID 0000.0001) > &STREAMICE_COST
(PID.TID 0000.0001) > streamice_do_verification_cost=.TRUE.,
(PID.TID 0000.0001) > /
(PID.TID 0000.0001) >
(PID.TID 0000.0001) > &STREAMICE_PARM03
(PID.TID 0000.0001) > min_x_noflow_north = 0.0,
(PID.TID 0000.0001) > max_x_noflow_north = 120.0e3,
(PID.TID 0000.0001) > min_x_noflow_south = 0.0,
(PID.TID 0000.0001) > max_x_noflow_south = 120.0e3,
(PID.TID 0000.0001) > min_y_noflow_WEST = -1.0,
(PID.TID 0000.0001) > max_y_noflow_WEST = -1.0,
(PID.TID 0000.0001) > min_y_noflow_EAST = -1.0,
(PID.TID 0000.0001) > max_y_noflow_EAST = -1.0,
(PID.TID 0000.0001) > min_x_noStress_NORTH = 0.0e3,
(PID.TID 0000.0001) > max_x_noStress_NORTH = 0.0e3,
(PID.TID 0000.0001) > min_x_noStress_SOUTH = 0.0e3,
(PID.TID 0000.0001) > max_x_noStress_SOUTH = 0.0e3,
(PID.TID 0000.0001) > min_y_noStress_WEST = -1.0,
(PID.TID 0000.0001) > max_y_noStress_WEST = -1.0,
(PID.TID 0000.0001) > min_y_noStress_EAST = -1.0,
(PID.TID 0000.0001) > max_y_noStress_EAST = -1.0,
(PID.TID 0000.0001) > min_x_FluxBdry_NORTH = -1.0,
(PID.TID 0000.0001) > max_x_FluxBdry_NORTH = -1.0,
(PID.TID 0000.0001) > min_x_FluxBdry_SOUTH = -1.0,
(PID.TID 0000.0001) > max_x_FluxBdry_SOUTH = -1.0,
(PID.TID 0000.0001) > min_y_FluxBdry_WEST = 0.0,
(PID.TID 0000.0001) > max_y_FluxBdry_WEST = 40.0e3,
(PID.TID 0000.0001) > min_y_FluxBdry_EAST = -1.0,
(PID.TID 0000.0001) > max_y_FluxBdry_EAST = -1.0,
(PID.TID 0000.0001) > min_x_Dirich_NORTH = -1.0,
(PID.TID 0000.0001) > max_x_Dirich_NORTH = -1.0,
(PID.TID 0000.0001) > min_x_Dirich_SOUTH = -1.0,
(PID.TID 0000.0001) > max_x_Dirich_SOUTH = -1.0,
(PID.TID 0000.0001) > min_y_Dirich_WEST = -1.0,
(PID.TID 0000.0001) > max_y_Dirich_WEST = -1.0,
(PID.TID 0000.0001) > min_y_Dirich_EAST = -1.0,
(PID.TID 0000.0001) > max_y_Dirich_EAST = -1.0,
(PID.TID 0000.0001) > min_x_CFBC_NORTH = -1.0,
(PID.TID 0000.0001) > max_x_CFBC_NORTH = -1.0,
(PID.TID 0000.0001) > min_x_CFBC_SOUTH = -1.0,
(PID.TID 0000.0001) > max_x_CFBC_SOUTH = -1.0,
(PID.TID 0000.0001) > min_y_CFBC_WEST = -1.0,
(PID.TID 0000.0001) > max_y_CFBC_WEST = -1.0,
(PID.TID 0000.0001) > min_y_CFBC_EAST = 0.0,
(PID.TID 0000.0001) > max_y_CFBC_EAST = 40.0e3,
(PID.TID 0000.0001) > flux_bdry_val_WEST =1.5e6,
(PID.TID 0000.0001) > STREAMICE_NS_periodic = .false.,
(PID.TID 0000.0001) > STREAMICE_EW_periodic = .false.,
(PID.TID 0000.0001) > /
(PID.TID 0000.0001) 
(PID.TID 0000.0001) STREAMICE_READPARMS: read first param block
(PID.TID 0000.0001) STREAMICE_READPARMS: read second param block
(PID.TID 0000.0001) STREAMICE_READPARMS: read cost param block
(PID.TID 0000.0001) STREAMICE_READPARMS: read bound condn block
(PID.TID 0000.0001) AUTODIFF_READPARMS: opening data.autodiff
(PID.TID 0000.0001)  OPEN_COPY_DATA_FILE: opening file data.autodiff
(PID.TID 0000.0001) // =======================================================
(PID.TID 0000.0001) // Parameter file "data.autodiff"
(PID.TID 0000.0001) // =======================================================
(PID.TID 0000.0001) ># =========================
(PID.TID 0000.0001) ># pkg AUTODIFF parameters :
(PID.TID 0000.0001) ># =========================
(PID.TID 0000.0001) > &AUTODIFF_PARM01
(PID.TID 0000.0001) > /
(PID.TID 0000.0001) 
(PID.TID 0000.0001) AUTODIFF_READPARMS: finished reading data.autodiff
(PID.TID 0000.0001) // ===================================
(PID.TID 0000.0001) // AUTODIFF parameters :
(PID.TID 0000.0001) // ===================================
(PID.TID 0000.0001) inAdExact = /* get an exact adjoint (no approximation) */
(PID.TID 0000.0001)                   T
(PID.TID 0000.0001)     ;
(PID.TID 0000.0001) useApproxAdvectionInAdMode = /* approximate AD-advection */
(PID.TID 0000.0001)                   F
(PID.TID 0000.0001)     ;
(PID.TID 0000.0001) cg2dFullAdjoint = /* use full hand written cg2d adjoint (no approximation) */
(PID.TID 0000.0001)                   F
(PID.TID 0000.0001)     ;
(PID.TID 0000.0001) useKPPinAdMode = /* use KPP in adjoint mode */
(PID.TID 0000.0001)                   F
(PID.TID 0000.0001)     ;
(PID.TID 0000.0001) useGMRediInAdMode = /* use GMRedi in adjoint mode */
(PID.TID 0000.0001)                   F
(PID.TID 0000.0001)     ;
(PID.TID 0000.0001) useSEAICEinAdMode = /* use SEAICE in adjoint mode */
(PID.TID 0000.0001)                   F
(PID.TID 0000.0001)     ;
(PID.TID 0000.0001) useGGL90inAdMode = /* use GGL90 in adjoint mode */
(PID.TID 0000.0001)                   F
(PID.TID 0000.0001)     ;
(PID.TID 0000.0001) useSALT_PLUMEinAdMode = /* use SALT_PLUME in adjoint mode */
(PID.TID 0000.0001)                   F
(PID.TID 0000.0001)     ;
(PID.TID 0000.0001) dumpAdVarExch = /* control adexch before dumpinp */
(PID.TID 0000.0001)                       2
(PID.TID 0000.0001)     ;
(PID.TID 0000.0001) mon_AdVarExch = /* control adexch before monitor */
(PID.TID 0000.0001)                       2
(PID.TID 0000.0001)     ;
(PID.TID 0000.0001) viscFacInFw = /* viscosity factor for forward model */
(PID.TID 0000.0001)                 1.000000000000000E+00
(PID.TID 0000.0001)     ;
(PID.TID 0000.0001) viscFacInAd = /* viscosity factor for adjoint */
(PID.TID 0000.0001)                 1.000000000000000E+00
(PID.TID 0000.0001)     ;
(PID.TID 0000.0001) SIregFacInAd = /* sea ice factor for adjoint model */
(PID.TID 0000.0001)                 1.234567000000000E+05
(PID.TID 0000.0001)     ;
(PID.TID 0000.0001) SIregFacInFw = /* sea ice factor for forward model */
(PID.TID 0000.0001)                 1.234567000000000E+05
(PID.TID 0000.0001)     ;
(PID.TID 0000.0001) 
(PID.TID 0000.0001) OPTIM_READPARMS: opening data.optim
(PID.TID 0000.0001)  OPEN_COPY_DATA_FILE: opening file data.optim
(PID.TID 0000.0001) // =======================================================
(PID.TID 0000.0001) // Parameter file "data.optim"
(PID.TID 0000.0001) // =======================================================
(PID.TID 0000.0001) ># ********************************
(PID.TID 0000.0001) ># Off-line optimization parameters
(PID.TID 0000.0001) ># ********************************
(PID.TID 0000.0001) > &OPTIM
(PID.TID 0000.0001) > optimcycle=0,
(PID.TID 0000.0001) > numiter=1000,
(PID.TID 0000.0001) > nfunc=3,
(PID.TID 0000.0001) > fmin=0.15e5,
(PID.TID 0000.0001) > iprint=10,
(PID.TID 0000.0001) > nupdate=4,
(PID.TID 0000.0001) > /
(PID.TID 0000.0001) >
(PID.TID 0000.0001) > &M1QN3
(PID.TID 0000.0001) >#coldStart=.true.,
(PID.TID 0000.0001) > /
(PID.TID 0000.0001) 
(PID.TID 0000.0001) OPTIM_READPARMS: finished reading data.optim
(PID.TID 0000.0001) CTRL_READPARMS: opening data.ctrl
(PID.TID 0000.0001)  OPEN_COPY_DATA_FILE: opening file data.ctrl
(PID.TID 0000.0001) // =======================================================
(PID.TID 0000.0001) // Parameter file "data.ctrl"
(PID.TID 0000.0001) // =======================================================
(PID.TID 0000.0001) > &CTRL_NML
(PID.TID 0000.0001) > doPackDiag = .FALSE.,
(PID.TID 0000.0001) > /
(PID.TID 0000.0001) >
(PID.TID 0000.0001) > &CTRL_PACKNAMES
(PID.TID 0000.0001) > /
(PID.TID 0000.0001) >
(PID.TID 0000.0001) > &CTRL_NML_GENARR
(PID.TID 0000.0001) > xx_genarr2d_file(1)   = 'xx_bglen',
(PID.TID 0000.0001) > xx_genarr2d_weight(1) = 'wunit',
(PID.TID 0000.0001) > xx_genarr2d_file(2)   = 'xx_h_streamice',
(PID.TID 0000.0001) > xx_genarr2d_weight(2) = 'wunit',
(PID.TID 0000.0001) > xx_gentim2d_file(1)   = 'xx_bdot_streamice',
(PID.TID 0000.0001) > xx_gentim2d_period(1) = 6307200.,
(PID.TID 0000.0001) > xx_gentim2d_weight(1) = 'wunit',
(PID.TID 0000.0001) ># genarr2dPrecond = 5 200
(PID.TID 0000.0001) > /
(PID.TID 0000.0001) 
(PID.TID 0000.0001) CTRL_READPARMS: finished reading data.ctrl
(PID.TID 0000.0001) read-write ctrl files from current run directory
(PID.TID 0000.0001) COST_READPARMS: opening data.cost
(PID.TID 0000.0001)  OPEN_COPY_DATA_FILE: opening file data.cost
(PID.TID 0000.0001) // =======================================================
(PID.TID 0000.0001) // Parameter file "data.cost"
(PID.TID 0000.0001) // =======================================================
(PID.TID 0000.0001) ># ******************
(PID.TID 0000.0001) ># cost function
(PID.TID 0000.0001) ># ******************
(PID.TID 0000.0001) > &COST_NML
(PID.TID 0000.0001) >#revert to default 1 month
(PID.TID 0000.0001) > lastinterval=320000000.,
(PID.TID 0000.0001) > mult_test=1.,
(PID.TID 0000.0001) > /
(PID.TID 0000.0001) 
(PID.TID 0000.0001) COST_READPARMS: finished reading data.cost
(PID.TID 0000.0001) GRDCHK_READPARMS: opening data.grdchk
(PID.TID 0000.0001)  OPEN_COPY_DATA_FILE: opening file data.grdchk
(PID.TID 0000.0001) // =======================================================
(PID.TID 0000.0001) // Parameter file "data.grdchk"
(PID.TID 0000.0001) // =======================================================
(PID.TID 0000.0001) ># *******************
(PID.TID 0000.0001) ># ECCO gradient check
(PID.TID 0000.0001) ># *******************
(PID.TID 0000.0001) > &GRDCHK_NML
(PID.TID 0000.0001) > grdchk_eps       = 1.d-1,
(PID.TID 0000.0001) >#nbeg             = 361,
(PID.TID 0000.0001) > iGloPos          = 10,
(PID.TID 0000.0001) > jGloPos          = 10,
(PID.TID 0000.0001) > kGloPos          = 1,
(PID.TID 0000.0001) > iGloTile         = 1,
(PID.TID 0000.0001) > jgloTile         = 1,
(PID.TID 0000.0001) > nstep            = 2,
(PID.TID 0000.0001) > nend             = 6,
(PID.TID 0000.0001) > grdchkvarname    = "xx_bdot_streamice",
(PID.TID 0000.0001) > /
(PID.TID 0000.0001) 
(PID.TID 0000.0001) GRDCHK_READPARMS: finished reading data.grdchk
(PID.TID 0000.0001) SET_PARMS: done
(PID.TID 0000.0001) Enter INI_VERTICAL_GRID: setInterFDr=    T ; setCenterDr=    F
(PID.TID 0000.0001) %MON XC_max                       =   7.9000000000000E+04
(PID.TID 0000.0001) %MON XC_min                       =   1.0000000000000E+03
(PID.TID 0000.0001) %MON XC_mean                      =   4.0000000000000E+04
(PID.TID 0000.0001) %MON XC_sd                        =   2.3086792761230E+04
(PID.TID 0000.0001) %MON XG_max                       =   7.8000000000000E+04
(PID.TID 0000.0001) %MON XG_min                       =   0.0000000000000E+00
(PID.TID 0000.0001) %MON XG_mean                      =   3.9000000000000E+04
(PID.TID 0000.0001) %MON XG_sd                        =   2.3086792761230E+04
(PID.TID 0000.0001) %MON DXC_max                      =   2.0000000000000E+03
(PID.TID 0000.0001) %MON DXC_min                      =   2.0000000000000E+03
(PID.TID 0000.0001) %MON DXC_mean                     =   2.0000000000000E+03
(PID.TID 0000.0001) %MON DXC_sd                       =   0.0000000000000E+00
(PID.TID 0000.0001) %MON DXF_max                      =   2.0000000000000E+03
(PID.TID 0000.0001) %MON DXF_min                      =   2.0000000000000E+03
(PID.TID 0000.0001) %MON DXF_mean                     =   2.0000000000000E+03
(PID.TID 0000.0001) %MON DXF_sd                       =   0.0000000000000E+00
(PID.TID 0000.0001) %MON DXG_max                      =   2.0000000000000E+03
(PID.TID 0000.0001) %MON DXG_min                      =   2.0000000000000E+03
(PID.TID 0000.0001) %MON DXG_mean                     =   2.0000000000000E+03
(PID.TID 0000.0001) %MON DXG_sd                       =   0.0000000000000E+00
(PID.TID 0000.0001) %MON DXV_max                      =   2.0000000000000E+03
(PID.TID 0000.0001) %MON DXV_min                      =   2.0000000000000E+03
(PID.TID 0000.0001) %MON DXV_mean                     =   2.0000000000000E+03
(PID.TID 0000.0001) %MON DXV_sd                       =   0.0000000000000E+00
(PID.TID 0000.0001) %MON YC_max                       =   3.9000000000000E+04
(PID.TID 0000.0001) %MON YC_min                       =   1.0000000000000E+03
(PID.TID 0000.0001) %MON YC_mean                      =   2.0000000000000E+04
(PID.TID 0000.0001) %MON YC_sd                        =   1.1532562594671E+04
(PID.TID 0000.0001) %MON YG_max                       =   3.8000000000000E+04
(PID.TID 0000.0001) %MON YG_min                       =   0.0000000000000E+00
(PID.TID 0000.0001) %MON YG_mean                      =   1.9000000000000E+04
(PID.TID 0000.0001) %MON YG_sd                        =   1.1532562594671E+04
(PID.TID 0000.0001) %MON DYC_max                      =   2.0000000000000E+03
(PID.TID 0000.0001) %MON DYC_min                      =   2.0000000000000E+03
(PID.TID 0000.0001) %MON DYC_mean                     =   2.0000000000000E+03
(PID.TID 0000.0001) %MON DYC_sd                       =   0.0000000000000E+00
(PID.TID 0000.0001) %MON DYF_max                      =   2.0000000000000E+03
(PID.TID 0000.0001) %MON DYF_min                      =   2.0000000000000E+03
(PID.TID 0000.0001) %MON DYF_mean                     =   2.0000000000000E+03
(PID.TID 0000.0001) %MON DYF_sd                       =   0.0000000000000E+00
(PID.TID 0000.0001) %MON DYG_max                      =   2.0000000000000E+03
(PID.TID 0000.0001) %MON DYG_min                      =   2.0000000000000E+03
(PID.TID 0000.0001) %MON DYG_mean                     =   2.0000000000000E+03
(PID.TID 0000.0001) %MON DYG_sd                       =   0.0000000000000E+00
(PID.TID 0000.0001) %MON DYU_max                      =   2.0000000000000E+03
(PID.TID 0000.0001) %MON DYU_min                      =   2.0000000000000E+03
(PID.TID 0000.0001) %MON DYU_mean                     =   2.0000000000000E+03
(PID.TID 0000.0001) %MON DYU_sd                       =   0.0000000000000E+00
(PID.TID 0000.0001) %MON RA_max                       =   4.0000000000000E+06
(PID.TID 0000.0001) %MON RA_min                       =   4.0000000000000E+06
(PID.TID 0000.0001) %MON RA_mean                      =   4.0000000000000E+06
(PID.TID 0000.0001) %MON RA_sd                        =   0.0000000000000E+00
(PID.TID 0000.0001) %MON RAW_max                      =   4.0000000000000E+06
(PID.TID 0000.0001) %MON RAW_min                      =   4.0000000000000E+06
(PID.TID 0000.0001) %MON RAW_mean                     =   4.0000000000000E+06
(PID.TID 0000.0001) %MON RAW_sd                       =   0.0000000000000E+00
(PID.TID 0000.0001) %MON RAS_max                      =   4.0000000000000E+06
(PID.TID 0000.0001) %MON RAS_min                      =   4.0000000000000E+06
(PID.TID 0000.0001) %MON RAS_mean                     =   4.0000000000000E+06
(PID.TID 0000.0001) %MON RAS_sd                       =   0.0000000000000E+00
(PID.TID 0000.0001) %MON RAZ_max                      =   4.0000000000000E+06
(PID.TID 0000.0001) %MON RAZ_min                      =   4.0000000000000E+06
(PID.TID 0000.0001) %MON RAZ_mean                     =   4.0000000000000E+06
(PID.TID 0000.0001) %MON RAZ_sd                       =   0.0000000000000E+00
(PID.TID 0000.0001) %MON AngleCS_max                  =   1.0000000000000E+00
(PID.TID 0000.0001) %MON AngleCS_min                  =   1.0000000000000E+00
(PID.TID 0000.0001) %MON AngleCS_mean                 =   1.0000000000000E+00
(PID.TID 0000.0001) %MON AngleCS_sd                   =   0.0000000000000E+00
(PID.TID 0000.0001) %MON AngleSN_max                  =   0.0000000000000E+00
(PID.TID 0000.0001) %MON AngleSN_min                  =   0.0000000000000E+00
(PID.TID 0000.0001) %MON AngleSN_mean                 =   0.0000000000000E+00
(PID.TID 0000.0001) %MON AngleSN_sd                   =   0.0000000000000E+00
(PID.TID 0000.0001) COST MASK - NOT IMPLENTED
(PID.TID 0000.0001) CTRL_INIT_FIXED: ivar=   3 = number of CTRL variables defined
(PID.TID 0000.0001) 
(PID.TID 0000.0001) ctrl-wet 1:    nvarlength =         4446
(PID.TID 0000.0001) ctrl-wet 2: surface wet C =          380
(PID.TID 0000.0001) ctrl-wet 3: surface wet W =          361
(PID.TID 0000.0001) ctrl-wet 4: surface wet S =          360
(PID.TID 0000.0001) ctrl-wet 5: 3D wet points =          380
(PID.TID 0000.0001) ctrl-wet 6: no recs for ivar =     1           1
(PID.TID 0000.0001) ctrl-wet 6: no recs for ivar =     2           1
(PID.TID 0000.0001) ctrl-wet 6: no recs for ivar =     3           4
(PID.TID 0000.0001) ctrl-wet 6: no recs for ivar =     4           0
(PID.TID 0000.0001) ctrl-wet -------------------------------------------------
(PID.TID 0000.0001) ctrl-wet 13: global nvarlength for Nr =    1        4446
(PID.TID 0000.0001) ctrl-wet -------------------------------------------------
(PID.TID 0000.0001) ctrl-wet 14: global nWet C/S/W k=    1         741         702         722
(PID.TID 0000.0001) ctrl-wet -------------------------------------------------
(PID.TID 0000.0001) ctrl_init_wet: no. of control variables:            3
(PID.TID 0000.0001) ctrl_init_wet: control vector length:            4446
(PID.TID 0000.0001) 
(PID.TID 0000.0001) // =======================================================
(PID.TID 0000.0001) // control vector configuration  >>> START <<<
(PID.TID 0000.0001) // =======================================================
(PID.TID 0000.0001) 
(PID.TID 0000.0001)  Total number of ocean points per tile:
(PID.TID 0000.0001)  --------------------------------------
(PID.TID 0000.0001)  sNx*sNy*Nr =      400
(PID.TID 0000.0001) 
(PID.TID 0000.0001)  Number of ocean points per tile:
(PID.TID 0000.0001)  --------------------------------
(PID.TID 0000.0001)  bi,bj,#(c/s/w): 001 001     380     360     361
(PID.TID 0000.0001)  bi,bj,#(c/s/w): 002 001     361     342     361
(PID.TID 0000.0001) 
(PID.TID 0000.0001)  -> 2d control, genarr2d no.  1 is in use
(PID.TID 0000.0001)       file       = xx_bglen
(PID.TID 0000.0001)       ncvartype  = Arr2D
(PID.TID 0000.0001)       index      =     1  (use this for pkg/grdchk)
(PID.TID 0000.0001)       ncvarindex =     1
(PID.TID 0000.0001)       weight     = wunit
(PID.TID 0000.0001) 
(PID.TID 0000.0001)  -> 2d control, genarr2d no.  2 is in use
(PID.TID 0000.0001)       file       = xx_h_streamice
(PID.TID 0000.0001)       ncvartype  = Arr2D
(PID.TID 0000.0001)       index      =     2  (use this for pkg/grdchk)
(PID.TID 0000.0001)       ncvarindex =     2
(PID.TID 0000.0001)       weight     = wunit
(PID.TID 0000.0001) 
(PID.TID 0000.0001)  -> time variable 2d control, gentim2d no.  1 is in use
(PID.TID 0000.0001)       file       = xx_bdot_streamice
(PID.TID 0000.0001)       ncvartype  = Tim2D
(PID.TID 0000.0001)       index      =     3  (use this for pkg/grdchk)
(PID.TID 0000.0001)       ncvarindex =     1
(PID.TID 0000.0001)       weight     = wunit
(PID.TID 0000.0001) 
(PID.TID 0000.0001) // =======================================================
(PID.TID 0000.0001) // control vector configuration  >>> END <<<
(PID.TID 0000.0001) // =======================================================
(PID.TID 0000.0001) 
(PID.TID 0000.0001) %MON fCori_max                    =   1.0039000000000E-04
(PID.TID 0000.0001) %MON fCori_min                    =   1.0001000000000E-04
(PID.TID 0000.0001) %MON fCori_mean                   =   1.0020000000000E-04
(PID.TID 0000.0001) %MON fCori_sd                     =   1.1532562594671E-07
(PID.TID 0000.0001) %MON fCoriG_max                   =   1.0038000000000E-04
(PID.TID 0000.0001) %MON fCoriG_min                   =   1.0000000000000E-04
(PID.TID 0000.0001) %MON fCoriG_mean                  =   1.0019000000000E-04
(PID.TID 0000.0001) %MON fCoriG_sd                    =   1.1532562594671E-07
(PID.TID 0000.0001) %MON fCoriCos_max                 =   0.0000000000000E+00
(PID.TID 0000.0001) %MON fCoriCos_min                 =   0.0000000000000E+00
(PID.TID 0000.0001) %MON fCoriCos_mean                =   0.0000000000000E+00
(PID.TID 0000.0001) %MON fCoriCos_sd                  =   0.0000000000000E+00
(PID.TID 0000.0001) INI_CG2D: CG2D normalisation factor =  1.1111111111111111E-03
(PID.TID 0000.0001) 
(PID.TID 0000.0001) // =======================================================
(PID.TID 0000.0001) // Model configuration
(PID.TID 0000.0001) // =======================================================
(PID.TID 0000.0001) //
(PID.TID 0000.0001) // "Physical" paramters ( PARM01 in namelist )
(PID.TID 0000.0001) //
(PID.TID 0000.0001) buoyancyRelation = /* Type of relation to get Buoyancy */
(PID.TID 0000.0001)               'OCEANIC'
(PID.TID 0000.0001)     ;
(PID.TID 0000.0001) fluidIsAir   =  /* fluid major constituent is Air */
(PID.TID 0000.0001)                   F
(PID.TID 0000.0001)     ;
(PID.TID 0000.0001) fluidIsWater =  /* fluid major constituent is Water */
(PID.TID 0000.0001)                   T
(PID.TID 0000.0001)     ;
(PID.TID 0000.0001) usingPCoords =  /* use p (or p*) vertical coordinate */
(PID.TID 0000.0001)                   F
(PID.TID 0000.0001)     ;
(PID.TID 0000.0001) usingZCoords =  /* use z (or z*) vertical coordinate */
(PID.TID 0000.0001)                   T
(PID.TID 0000.0001)     ;
(PID.TID 0000.0001) tRef =   /* Reference temperature profile ( oC or K ) */
(PID.TID 0000.0001)                 2.000000000000000E+01       /* K =  1 */
(PID.TID 0000.0001)     ;
(PID.TID 0000.0001) sRef =   /* Reference salinity profile ( g/kg ) */
(PID.TID 0000.0001)                 1.000000000000000E+01       /* K =  1 */
(PID.TID 0000.0001)     ;
(PID.TID 0000.0001) rhoRef =   /* Density vertical profile from (Ref,sRef)( kg/m^3 ) */
(PID.TID 0000.0001)                 9.998000000000000E+02       /* K =  1 */
(PID.TID 0000.0001)     ;
(PID.TID 0000.0001) dBdrRef = /* Vertical grad. of reference buoyancy [(m/s/r)^2] */
(PID.TID 0000.0001)                 0.000000000000000E+00       /* K =  1 */
(PID.TID 0000.0001)     ;
(PID.TID 0000.0001) diffKhT =   /* Laplacian diffusion of heat laterally ( m^2/s ) */
(PID.TID 0000.0001)                 0.000000000000000E+00
(PID.TID 0000.0001)     ;
(PID.TID 0000.0001) diffK4T =   /* Biharmonic diffusion of heat laterally ( m^4/s ) */
(PID.TID 0000.0001)                 0.000000000000000E+00
(PID.TID 0000.0001)     ;
(PID.TID 0000.0001) diffKhS =   /* Laplacian diffusion of salt laterally ( m^2/s ) */
(PID.TID 0000.0001)                 0.000000000000000E+00
(PID.TID 0000.0001)     ;
(PID.TID 0000.0001) diffK4S =   /* Biharmonic diffusion of salt laterally ( m^4/s ) */
(PID.TID 0000.0001)                 0.000000000000000E+00
(PID.TID 0000.0001)     ;
(PID.TID 0000.0001) diffKrNrT = /* vertical profile of vertical diffusion of Temp ( m^2/s )*/
(PID.TID 0000.0001)                 0.000000000000000E+00       /* K =  1 */
(PID.TID 0000.0001)     ;
(PID.TID 0000.0001) diffKrNrS = /* vertical profile of vertical diffusion of Salt ( m^2/s )*/
(PID.TID 0000.0001)                 0.000000000000000E+00       /* K =  1 */
(PID.TID 0000.0001)     ;
(PID.TID 0000.0001) diffKrBL79surf = /* Surface diffusion for Bryan and Lewis 79 ( m^2/s ) */
(PID.TID 0000.0001)                 0.000000000000000E+00
(PID.TID 0000.0001)     ;
(PID.TID 0000.0001) diffKrBL79deep = /* Deep diffusion for Bryan and Lewis 1979 ( m^2/s ) */
(PID.TID 0000.0001)                 0.000000000000000E+00
(PID.TID 0000.0001)     ;
(PID.TID 0000.0001) diffKrBL79scl = /* Depth scale for Bryan and Lewis 1979 ( m ) */
(PID.TID 0000.0001)                 2.000000000000000E+02
(PID.TID 0000.0001)     ;
(PID.TID 0000.0001) diffKrBL79Ho = /* Turning depth for Bryan and Lewis 1979 ( m ) */
(PID.TID 0000.0001)                -2.000000000000000E+03
(PID.TID 0000.0001)     ;
(PID.TID 0000.0001) ivdc_kappa = /* Implicit Vertical Diffusivity for Convection ( m^2/s) */
(PID.TID 0000.0001)                 0.000000000000000E+00
(PID.TID 0000.0001)     ;
(PID.TID 0000.0001) hMixCriteria=  /* Criteria for mixed-layer diagnostic */
(PID.TID 0000.0001)                -8.000000000000000E-01
(PID.TID 0000.0001)     ;
(PID.TID 0000.0001) dRhoSmall =  /* Parameter for mixed-layer diagnostic */
(PID.TID 0000.0001)                 1.000000000000000E-06
(PID.TID 0000.0001)     ;
(PID.TID 0000.0001) hMixSmooth=  /* Smoothing parameter for mixed-layer diagnostic */
(PID.TID 0000.0001)                 0.000000000000000E+00
(PID.TID 0000.0001)     ;
(PID.TID 0000.0001) eosType =  /* Type of Equation of State */
(PID.TID 0000.0001)               'LINEAR'
(PID.TID 0000.0001)     ;
(PID.TID 0000.0001) tAlpha = /* Linear EOS thermal expansion coefficient ( 1/oC ) */
(PID.TID 0000.0001)                 2.000000000000000E-04
(PID.TID 0000.0001)     ;
(PID.TID 0000.0001) sBeta  = /* Linear EOS haline contraction coefficient ( 1/(g/kg) ) */
(PID.TID 0000.0001)                 7.400000000000000E-04
(PID.TID 0000.0001)     ;
(PID.TID 0000.0001) rhoNil    = /* Reference density for Linear EOS ( kg/m^3 ) */
(PID.TID 0000.0001)                 9.998000000000000E+02
(PID.TID 0000.0001)     ;
(PID.TID 0000.0001) selectP_inEOS_Zc = /* select pressure to use in EOS (0,1,2,3) */
(PID.TID 0000.0001)                       0
(PID.TID 0000.0001)     0= -g*rhoConst*z ; 1= pRef (from tRef,sRef); 2= Hyd P ; 3= Hyd+NH P
(PID.TID 0000.0001)     ;
(PID.TID 0000.0001) surf_pRef = /* Surface reference pressure ( Pa ) */
(PID.TID 0000.0001)                 1.013250000000000E+05
(PID.TID 0000.0001)     ;
(PID.TID 0000.0001) HeatCapacity_Cp =  /* Specific heat capacity ( J/kg/K ) */
(PID.TID 0000.0001)                 3.994000000000000E+03
(PID.TID 0000.0001)     ;
(PID.TID 0000.0001) celsius2K = /* 0 degree Celsius converted to Kelvin ( K ) */
(PID.TID 0000.0001)                 2.731500000000000E+02
(PID.TID 0000.0001)     ;
(PID.TID 0000.0001) rhoConst  = /* Reference density (Boussinesq)  ( kg/m^3 ) */
(PID.TID 0000.0001)                 9.998000000000000E+02
(PID.TID 0000.0001)     ;
(PID.TID 0000.0001) rhoFacC = /* normalized Reference density @ cell-Center (-) */
(PID.TID 0000.0001)                 1.000000000000000E+00       /* K =  1 */
(PID.TID 0000.0001)     ;
(PID.TID 0000.0001) rhoFacF = /* normalized Reference density @ W-Interface (-) */
(PID.TID 0000.0001)     2 @  1.000000000000000E+00              /* K =  1:  2 */
(PID.TID 0000.0001)     ;
(PID.TID 0000.0001) rhoConstFresh = /* Fresh-water reference density ( kg/m^3 ) */
(PID.TID 0000.0001)                 9.998000000000000E+02
(PID.TID 0000.0001)     ;
(PID.TID 0000.0001) gravity =   /* Gravitational acceleration ( m/s^2 ) */
(PID.TID 0000.0001)                 9.810000000000000E+00
(PID.TID 0000.0001)     ;
(PID.TID 0000.0001) gBaro =   /* Barotropic gravity ( m/s^2 ) */
(PID.TID 0000.0001)                 9.810000000000000E+00
(PID.TID 0000.0001)     ;
(PID.TID 0000.0001) gravFacC = /* gravity factor (vs surf.) @ cell-Center (-) */
(PID.TID 0000.0001)                 1.000000000000000E+00       /* K =  1 */
(PID.TID 0000.0001)     ;
(PID.TID 0000.0001) gravFacF = /* gravity factor (vs surf.) @ W-Interface (-) */
(PID.TID 0000.0001)     2 @  1.000000000000000E+00              /* K =  1:  2 */
(PID.TID 0000.0001)     ;
(PID.TID 0000.0001) rotationPeriod =   /* Rotation Period ( s ) */
(PID.TID 0000.0001)                 8.616400000000000E+04
(PID.TID 0000.0001)     ;
(PID.TID 0000.0001) omega =   /* Angular velocity ( rad/s ) */
(PID.TID 0000.0001)                 7.292123516990375E-05
(PID.TID 0000.0001)     ;
(PID.TID 0000.0001) f0 =   /* Reference coriolis parameter ( 1/s ) */
(PID.TID 0000.0001)                 1.000000000000000E-04
(PID.TID 0000.0001)     ;
(PID.TID 0000.0001) beta =   /* Beta ( 1/(m.s) ) */
(PID.TID 0000.0001)                 9.999999999999999E-12
(PID.TID 0000.0001)     ;
(PID.TID 0000.0001) fPrime =   /* Second coriolis parameter ( 1/s ) */
(PID.TID 0000.0001)                 0.000000000000000E+00
(PID.TID 0000.0001)     ;
(PID.TID 0000.0001) rigidLid =   /* Rigid lid on/off flag */
(PID.TID 0000.0001)                   F
(PID.TID 0000.0001)     ;
(PID.TID 0000.0001) implicitFreeSurface =   /* Implicit free surface on/off flag */
(PID.TID 0000.0001)                   T
(PID.TID 0000.0001)     ;
(PID.TID 0000.0001) freeSurfFac =   /* Implicit free surface factor */
(PID.TID 0000.0001)                 1.000000000000000E+00
(PID.TID 0000.0001)     ;
(PID.TID 0000.0001) implicSurfPress =  /* Surface Pressure implicit factor (0-1) */
(PID.TID 0000.0001)                 1.000000000000000E+00
(PID.TID 0000.0001)     ;
(PID.TID 0000.0001) implicDiv2DFlow =  /* Barot. Flow Div. implicit factor (0-1) */
(PID.TID 0000.0001)                 1.000000000000000E+00
(PID.TID 0000.0001)     ;
(PID.TID 0000.0001) uniformLin_PhiSurf = /* use uniform Bo_surf on/off flag */
(PID.TID 0000.0001)                   T
(PID.TID 0000.0001)     ;
(PID.TID 0000.0001) uniformFreeSurfLev = /* free-surface level-index is uniform */
(PID.TID 0000.0001)                   T
(PID.TID 0000.0001)     ;
(PID.TID 0000.0001) sIceLoadFac =  /* scale factor for sIceLoad (0-1) */
(PID.TID 0000.0001)                 1.000000000000000E+00
(PID.TID 0000.0001)     ;
(PID.TID 0000.0001) hFacMin =   /* minimum partial cell factor (hFac) */
(PID.TID 0000.0001)                 5.000000000000000E-02
(PID.TID 0000.0001)     ;
(PID.TID 0000.0001) hFacMinDr = /* minimum partial cell thickness ( m) */
(PID.TID 0000.0001)                 5.000000000000000E+01
(PID.TID 0000.0001)     ;
(PID.TID 0000.0001) exactConserv =  /* Exact Volume Conservation on/off flag */
(PID.TID 0000.0001)                   F
(PID.TID 0000.0001)     ;
(PID.TID 0000.0001) linFSConserveTr = /* Tracer correction for Lin Free Surface on/off flag */
(PID.TID 0000.0001)                   F
(PID.TID 0000.0001)     ;
(PID.TID 0000.0001) nonlinFreeSurf = /* Non-linear Free Surf. options (-1,0,1,2,3)*/
(PID.TID 0000.0001)                       0
(PID.TID 0000.0001)      -1,0= Off ; 1,2,3= On, 2=+rescale gU,gV, 3=+update cg2d solv.
(PID.TID 0000.0001)     ;
(PID.TID 0000.0001) hFacInf =   /* lower threshold for hFac (nonlinFreeSurf only)*/
(PID.TID 0000.0001)                 2.000000000000000E-01
(PID.TID 0000.0001)     ;
(PID.TID 0000.0001) hFacSup =   /* upper threshold for hFac (nonlinFreeSurf only)*/
(PID.TID 0000.0001)                 2.000000000000000E+00
(PID.TID 0000.0001)     ;
(PID.TID 0000.0001) select_rStar = /* r* Vertical coord. options (=0 r coord.; >0 uses r*)*/
(PID.TID 0000.0001)                       0
(PID.TID 0000.0001)     ;
(PID.TID 0000.0001) useRealFreshWaterFlux = /* Real Fresh Water Flux on/off flag*/
(PID.TID 0000.0001)                   F
(PID.TID 0000.0001)     ;
(PID.TID 0000.0001) temp_EvPrRn = /* Temp. of Evap/Prec/R (UNSET=use local T)(oC)*/
(PID.TID 0000.0001)                 1.234567000000000E+05
(PID.TID 0000.0001)     ;
(PID.TID 0000.0001) salt_EvPrRn = /* Salin. of Evap/Prec/R (UNSET=use local S)(g/kg)*/
(PID.TID 0000.0001)                 0.000000000000000E+00
(PID.TID 0000.0001)     ;
(PID.TID 0000.0001) selectAddFluid = /* option for mass source/sink of fluid (=0: off) */
(PID.TID 0000.0001)                       0
(PID.TID 0000.0001)     ;
(PID.TID 0000.0001) temp_addMass = /* Temp. of addMass array (UNSET=use local T)(oC)*/
(PID.TID 0000.0001)                 1.234567000000000E+05
(PID.TID 0000.0001)     ;
(PID.TID 0000.0001) salt_addMass = /* Salin. of addMass array (UNSET=use local S)(g/kg)*/
(PID.TID 0000.0001)                 0.000000000000000E+00
(PID.TID 0000.0001)     ;
(PID.TID 0000.0001) convertFW2Salt = /* convert F.W. Flux to Salt Flux (-1=use local S)(g/kg)*/
(PID.TID 0000.0001)                 3.500000000000000E+01
(PID.TID 0000.0001)     ;
(PID.TID 0000.0001) use3Dsolver = /* use 3-D pressure solver on/off flag */
(PID.TID 0000.0001)                   F
(PID.TID 0000.0001)     ;
(PID.TID 0000.0001) nonHydrostatic =  /* Non-Hydrostatic on/off flag */
(PID.TID 0000.0001)                   F
(PID.TID 0000.0001)     ;
(PID.TID 0000.0001) nh_Am2 = /* Non-Hydrostatic terms scaling factor */
(PID.TID 0000.0001)                 1.000000000000000E+00
(PID.TID 0000.0001)     ;
(PID.TID 0000.0001) implicitNHPress = /* Non-Hyd Pressure implicit factor (0-1)*/
(PID.TID 0000.0001)                 1.000000000000000E+00
(PID.TID 0000.0001)     ;
(PID.TID 0000.0001) selectNHfreeSurf = /* Non-Hyd (free-)Surface option */
(PID.TID 0000.0001)                       0
(PID.TID 0000.0001)     ;
(PID.TID 0000.0001) quasiHydrostatic = /* Quasi-Hydrostatic on/off flag */
(PID.TID 0000.0001)                   F
(PID.TID 0000.0001)     ;
(PID.TID 0000.0001) calc_wVelocity = /* vertical velocity calculation on/off flag */
(PID.TID 0000.0001)                   F
(PID.TID 0000.0001)     ;
(PID.TID 0000.0001) momStepping =  /* Momentum equation on/off flag */
(PID.TID 0000.0001)                   F
(PID.TID 0000.0001)     ;
(PID.TID 0000.0001) vectorInvariantMomentum= /* Vector-Invariant Momentum on/off */
(PID.TID 0000.0001)                   F
(PID.TID 0000.0001)     ;
(PID.TID 0000.0001) momAdvection =  /* Momentum advection on/off flag */
(PID.TID 0000.0001)                   F
(PID.TID 0000.0001)     ;
(PID.TID 0000.0001) momViscosity =  /* Momentum viscosity on/off flag */
(PID.TID 0000.0001)                   F
(PID.TID 0000.0001)     ;
(PID.TID 0000.0001) momImplVertAdv= /* Momentum implicit vert. advection on/off*/
(PID.TID 0000.0001)                   F
(PID.TID 0000.0001)     ;
(PID.TID 0000.0001) implicitViscosity = /* Implicit viscosity on/off flag */
(PID.TID 0000.0001)                   F
(PID.TID 0000.0001)     ;
(PID.TID 0000.0001) selectImplicitDrag= /* Implicit bot Drag options (0,1,2)*/
(PID.TID 0000.0001)                       0
(PID.TID 0000.0001)     0= Expl. ; 1= Impl. on provis. Vel ; 2= Fully Impl (with surf.P)
(PID.TID 0000.0001)     ;
(PID.TID 0000.0001) selectMetricTerms= /* Metric-Terms on/off flag (=0/1) */
(PID.TID 0000.0001)                       0
(PID.TID 0000.0001)     ;
(PID.TID 0000.0001) useNHMTerms = /* Non-Hydrostatic Metric-Terms on/off */
(PID.TID 0000.0001)                   F
(PID.TID 0000.0001)     ;
(PID.TID 0000.0001) selectCoriMap = /* Coriolis Map options (0,1,2,3)*/
(PID.TID 0000.0001)                       1
(PID.TID 0000.0001)     0= f-Plane ; 1= Beta-Plane ; 2= Spherical ; 3= read from file
(PID.TID 0000.0001)     ;
(PID.TID 0000.0001) select3dCoriScheme= /* 3-D Coriolis on/off flag (=0/1) */
(PID.TID 0000.0001)                       0
(PID.TID 0000.0001)     ;
(PID.TID 0000.0001) useCoriolis =  /* Coriolis on/off flag */
(PID.TID 0000.0001)                   F
(PID.TID 0000.0001)     ;
(PID.TID 0000.0001) useCDscheme =  /* CD scheme on/off flag */
(PID.TID 0000.0001)                   F
(PID.TID 0000.0001)     ;
(PID.TID 0000.0001) selectCoriScheme= /* Scheme selector for Coriolis-Term */
(PID.TID 0000.0001)                       0
(PID.TID 0000.0001)    = 0 : original discretization (simple averaging, no hFac)
(PID.TID 0000.0001)    = 1 : Wet-point averaging (Jamar & Ozer 1986)
(PID.TID 0000.0001)    = 2 : energy conserving scheme (no hFac weight)
(PID.TID 0000.0001)    = 3 : energy conserving scheme using Wet-point averaging
(PID.TID 0000.0001)     ;
(PID.TID 0000.0001) momForcing =  /* Momentum forcing on/off flag */
(PID.TID 0000.0001)                   F
(PID.TID 0000.0001)     ;
(PID.TID 0000.0001) momPressureForcing =  /* Momentum pressure term on/off flag */
(PID.TID 0000.0001)                   F
(PID.TID 0000.0001)     ;
(PID.TID 0000.0001) implicitIntGravWave= /* Implicit Internal Gravity Wave flag */
(PID.TID 0000.0001)                   F
(PID.TID 0000.0001)     ;
(PID.TID 0000.0001) staggerTimeStep =    /* Stagger time stepping on/off flag */
(PID.TID 0000.0001)                   F
(PID.TID 0000.0001)     ;
(PID.TID 0000.0001) doResetHFactors = /* reset thickness factors @ each time-step */
(PID.TID 0000.0001)                   F
(PID.TID 0000.0001)     ;
(PID.TID 0000.0001) multiDimAdvection =  /* enable/disable Multi-Dim Advection */
(PID.TID 0000.0001)                   T
(PID.TID 0000.0001)     ;
(PID.TID 0000.0001) useMultiDimAdvec =   /* Multi-Dim Advection is/is-not used */
(PID.TID 0000.0001)                   F
(PID.TID 0000.0001)     ;
(PID.TID 0000.0001) implicitDiffusion = /* Implicit Diffusion on/off flag */
(PID.TID 0000.0001)                   F
(PID.TID 0000.0001)     ;
(PID.TID 0000.0001) tempStepping =  /* Temperature equation on/off flag */
(PID.TID 0000.0001)                   F
(PID.TID 0000.0001)     ;
(PID.TID 0000.0001) tempAdvection = /* Temperature advection on/off flag */
(PID.TID 0000.0001)                   F
(PID.TID 0000.0001)     ;
(PID.TID 0000.0001) tempImplVertAdv = /* Temp. implicit vert. advection on/off */
(PID.TID 0000.0001)                   F
(PID.TID 0000.0001)     ;
(PID.TID 0000.0001) tempForcing  =  /* Temperature forcing on/off flag */
(PID.TID 0000.0001)                   F
(PID.TID 0000.0001)     ;
(PID.TID 0000.0001) doThetaClimRelax = /* apply SST relaxation on/off flag */
(PID.TID 0000.0001)                   F
(PID.TID 0000.0001)     ;
(PID.TID 0000.0001) tempIsActiveTr = /* Temp. is a dynamically Active Tracer */
(PID.TID 0000.0001)                   F
(PID.TID 0000.0001)     ;
(PID.TID 0000.0001) saltStepping =  /* Salinity equation on/off flag */
(PID.TID 0000.0001)                   F
(PID.TID 0000.0001)     ;
(PID.TID 0000.0001) saltAdvection = /* Salinity advection on/off flag */
(PID.TID 0000.0001)                   F
(PID.TID 0000.0001)     ;
(PID.TID 0000.0001) saltImplVertAdv = /* Sali. implicit vert. advection on/off */
(PID.TID 0000.0001)                   F
(PID.TID 0000.0001)     ;
(PID.TID 0000.0001) saltForcing  =  /* Salinity forcing on/off flag */
(PID.TID 0000.0001)                   F
(PID.TID 0000.0001)     ;
(PID.TID 0000.0001) doSaltClimRelax = /* apply SSS relaxation on/off flag */
(PID.TID 0000.0001)                   F
(PID.TID 0000.0001)     ;
(PID.TID 0000.0001) saltIsActiveTr = /* Salt  is a dynamically Active Tracer */
(PID.TID 0000.0001)                   F
(PID.TID 0000.0001)     ;
(PID.TID 0000.0001)  readBinaryPrec = /* Precision used for reading binary files */
(PID.TID 0000.0001)                      64
(PID.TID 0000.0001)     ;
(PID.TID 0000.0001) writeBinaryPrec = /* Precision used for writing binary files */
(PID.TID 0000.0001)                      64
(PID.TID 0000.0001)     ;
(PID.TID 0000.0001)  rwSuffixType =   /* select format of mds file suffix */
(PID.TID 0000.0001)                       0
(PID.TID 0000.0001)    = 0 : myIter (I10.10) ;   = 1 : 100*myTime (100th sec) ;
(PID.TID 0000.0001)    = 2 : myTime (seconds);   = 3 : myTime/360 (10th of hr);
(PID.TID 0000.0001)    = 4 : myTime/3600 (hours)
(PID.TID 0000.0001)     ;
(PID.TID 0000.0001)  globalFiles = /* write "global" (=not per tile) files */
(PID.TID 0000.0001)                   F
(PID.TID 0000.0001)     ;
(PID.TID 0000.0001)  useSingleCpuIO = /* only master MPI process does I/O */
(PID.TID 0000.0001)                   F
(PID.TID 0000.0001)     ;
(PID.TID 0000.0001)  useSingleCpuInput = /* only master process reads input */
(PID.TID 0000.0001)                   F
(PID.TID 0000.0001)     ;
(PID.TID 0000.0001) /* debLev[*]  : level of debug & auxiliary message printing */
(PID.TID 0000.0001) debLevZero =  0 ; /* level of disabled aux. msg printing */
(PID.TID 0000.0001)    debLevA =  1 ; /* level of minimum  aux. msg printing */
(PID.TID 0000.0001)    debLevB =  2 ; /* level of low aux. print (report read-file opening)*/
(PID.TID 0000.0001)    debLevC =  3 ; /* level of moderate debug prt (most pkgs debug msg) */
(PID.TID 0000.0001)    debLevD =  4 ; /* level of enhanced debug prt (add DEBUG_STATS prt) */
(PID.TID 0000.0001)    debLevE =  5 ; /* level of extensive debug printing */
(PID.TID 0000.0001) debugLevel =  /* select debug printing level */
(PID.TID 0000.0001)                       1
(PID.TID 0000.0001)     ;
(PID.TID 0000.0001)  plotLevel =  /* select PLOT_FIELD printing level */
(PID.TID 0000.0001)                       1
(PID.TID 0000.0001)     ;
(PID.TID 0000.0001) //
(PID.TID 0000.0001) // Elliptic solver(s) paramters ( PARM02 in namelist )
(PID.TID 0000.0001) //
(PID.TID 0000.0001) cg2dMaxIters =   /* Upper limit on 2d con. grad iterations  */
(PID.TID 0000.0001)                     150
(PID.TID 0000.0001)     ;
(PID.TID 0000.0001) cg2dMinItersNSA =   /* Minimum number of iterations of 2d con. grad solver  */
(PID.TID 0000.0001)                       0
(PID.TID 0000.0001)     ;
(PID.TID 0000.0001) cg2dUseMinResSol= /* use cg2d last-iter(=0) / min-resid.(=1) solution */
(PID.TID 0000.0001)                       0
(PID.TID 0000.0001)     ;
(PID.TID 0000.0001) cg2dTargetResidual =   /* 2d con. grad target residual  */
(PID.TID 0000.0001)                 1.000000000000000E-07
(PID.TID 0000.0001)     ;
(PID.TID 0000.0001) cg2dTargetResWunit =   /* CG2d target residual [W units] */
(PID.TID 0000.0001)                -1.000000000000000E+00
(PID.TID 0000.0001)     ;
(PID.TID 0000.0001) cg2dPreCondFreq =   /* Freq. for updating cg2d preconditioner */
(PID.TID 0000.0001)                       1
(PID.TID 0000.0001)     ;
(PID.TID 0000.0001) useSRCGSolver =  /* use single reduction CG solver(s) */
(PID.TID 0000.0001)                   F
(PID.TID 0000.0001)     ;
(PID.TID 0000.0001) useNSACGSolver =  /* use not-self-adjoint CG solver */
(PID.TID 0000.0001)                   F
(PID.TID 0000.0001)     ;
(PID.TID 0000.0001) printResidualFreq = /* Freq. for printing CG residual */
(PID.TID 0000.0001)                       0
(PID.TID 0000.0001)     ;
(PID.TID 0000.0001) //
(PID.TID 0000.0001) // Time stepping paramters ( PARM03 in namelist )
(PID.TID 0000.0001) //
(PID.TID 0000.0001) deltaTMom =   /* Momentum equation timestep ( s ) */
(PID.TID 0000.0001)                 6.307200000000000E+06
(PID.TID 0000.0001)     ;
(PID.TID 0000.0001) deltaTFreeSurf = /* FreeSurface equation timestep ( s ) */
(PID.TID 0000.0001)                 6.307200000000000E+06
(PID.TID 0000.0001)     ;
(PID.TID 0000.0001) dTtracerLev =  /* Tracer equation timestep ( s ) */
(PID.TID 0000.0001)                 6.307200000000000E+06       /* K =  1 */
(PID.TID 0000.0001)     ;
(PID.TID 0000.0001) deltaTClock  =   /* Model clock timestep ( s ) */
(PID.TID 0000.0001)                 6.307200000000000E+06
(PID.TID 0000.0001)     ;
(PID.TID 0000.0001) cAdjFreq =   /* Convective adjustment interval ( s ) */
(PID.TID 0000.0001)                 0.000000000000000E+00
(PID.TID 0000.0001)     ;
(PID.TID 0000.0001) momForcingOutAB = /* =1: take Momentum Forcing out of Adams-Bash. stepping */
(PID.TID 0000.0001)                       0
(PID.TID 0000.0001)     ;
(PID.TID 0000.0001) tracForcingOutAB = /* =1: take T,S,pTr Forcing out of Adams-Bash. stepping */
(PID.TID 0000.0001)                       0
(PID.TID 0000.0001)     ;
(PID.TID 0000.0001) momDissip_In_AB = /* put Dissipation Tendency in Adams-Bash. stepping */
(PID.TID 0000.0001)                   T
(PID.TID 0000.0001)     ;
(PID.TID 0000.0001) doAB_onGtGs = /* apply AB on Tendencies (rather than on T,S)*/
(PID.TID 0000.0001)                   T
(PID.TID 0000.0001)     ;
(PID.TID 0000.0001) abEps =   /* Adams-Bashforth-2 stabilizing weight */
(PID.TID 0000.0001)                 1.000000000000000E-02
(PID.TID 0000.0001)     ;
(PID.TID 0000.0001) applyExchUV_early = /* Apply EXCH to U,V earlier in time-step */
(PID.TID 0000.0001)                   F
(PID.TID 0000.0001)     ;
(PID.TID 0000.0001) pickupStrictlyMatch= /* stop if pickup do not strictly match */
(PID.TID 0000.0001)                   T
(PID.TID 0000.0001)     ;
(PID.TID 0000.0001) nIter0   =   /* Run starting timestep number */
(PID.TID 0000.0001)                       0
(PID.TID 0000.0001)     ;
(PID.TID 0000.0001) nTimeSteps = /* Number of timesteps */
(PID.TID 0000.0001)                       3
(PID.TID 0000.0001)     ;
(PID.TID 0000.0001) nEndIter =   /* Run ending timestep number */
(PID.TID 0000.0001)                       3
(PID.TID 0000.0001)     ;
(PID.TID 0000.0001) baseTime =   /* Model base time ( s ) */
(PID.TID 0000.0001)                 0.000000000000000E+00
(PID.TID 0000.0001)     ;
(PID.TID 0000.0001) startTime =  /* Run start time ( s ) */
(PID.TID 0000.0001)                 0.000000000000000E+00
(PID.TID 0000.0001)     ;
(PID.TID 0000.0001) endTime  =   /* Integration ending time ( s ) */
(PID.TID 0000.0001)                 1.892160000000000E+07
(PID.TID 0000.0001)     ;
(PID.TID 0000.0001) pChkPtFreq = /* Permanent restart/pickup file interval ( s ) */
(PID.TID 0000.0001)                 0.000000000000000E+00
(PID.TID 0000.0001)     ;
(PID.TID 0000.0001) chkPtFreq  = /* Rolling restart/pickup file interval ( s ) */
(PID.TID 0000.0001)                 0.000000000000000E+00
(PID.TID 0000.0001)     ;
(PID.TID 0000.0001) pickup_write_mdsio =   /* Model IO flag. */
(PID.TID 0000.0001)                   T
(PID.TID 0000.0001)     ;
(PID.TID 0000.0001) pickup_read_mdsio =   /* Model IO flag. */
(PID.TID 0000.0001)                   T
(PID.TID 0000.0001)     ;
(PID.TID 0000.0001) writePickupAtEnd =   /* Model IO flag. */
(PID.TID 0000.0001)                   T
(PID.TID 0000.0001)     ;
(PID.TID 0000.0001) dumpFreq =   /* Model state write out interval ( s ). */
(PID.TID 0000.0001)                 0.000000000000000E+00
(PID.TID 0000.0001)     ;
(PID.TID 0000.0001) dumpInitAndLast= /* write out Initial & Last iter. model state */
(PID.TID 0000.0001)                   T
(PID.TID 0000.0001)     ;
(PID.TID 0000.0001) snapshot_mdsio =   /* Model IO flag. */
(PID.TID 0000.0001)                   T
(PID.TID 0000.0001)     ;
(PID.TID 0000.0001) monitorFreq =   /* Monitor output interval ( s ). */
(PID.TID 0000.0001)                 0.000000000000000E+00
(PID.TID 0000.0001)     ;
(PID.TID 0000.0001) monitorSelect = /* select group of variables to monitor */
(PID.TID 0000.0001)                       3
(PID.TID 0000.0001)     ;
(PID.TID 0000.0001) monitor_stdio =   /* Model IO flag. */
(PID.TID 0000.0001)                   T
(PID.TID 0000.0001)     ;
(PID.TID 0000.0001) externForcingPeriod =   /* forcing period (s) */
(PID.TID 0000.0001)                 0.000000000000000E+00
(PID.TID 0000.0001)     ;
(PID.TID 0000.0001) externForcingCycle =   /* period of the cyle (s). */
(PID.TID 0000.0001)                 1.892160000000000E+07
(PID.TID 0000.0001)     ;
(PID.TID 0000.0001) tauThetaClimRelax =   /* relaxation time scale (s) */
(PID.TID 0000.0001)                 0.000000000000000E+00
(PID.TID 0000.0001)     ;
(PID.TID 0000.0001) tauSaltClimRelax =   /* relaxation time scale (s) */
(PID.TID 0000.0001)                 0.000000000000000E+00
(PID.TID 0000.0001)     ;
(PID.TID 0000.0001) latBandClimRelax =   /* max. Lat. where relaxation */
(PID.TID 0000.0001)                 1.200000000000000E+05
(PID.TID 0000.0001)     ;
(PID.TID 0000.0001) //
(PID.TID 0000.0001) // Gridding paramters ( PARM04 in namelist )
(PID.TID 0000.0001) //
(PID.TID 0000.0001) usingCartesianGrid = /* Cartesian coordinates flag ( True/False ) */
(PID.TID 0000.0001)                   T
(PID.TID 0000.0001)     ;
(PID.TID 0000.0001) usingCylindricalGrid = /* Cylindrical coordinates flag ( True/False ) */
(PID.TID 0000.0001)                   F
(PID.TID 0000.0001)     ;
(PID.TID 0000.0001) usingSphericalPolarGrid = /* Spherical coordinates flag ( True/False ) */
(PID.TID 0000.0001)                   F
(PID.TID 0000.0001)     ;
(PID.TID 0000.0001) usingCurvilinearGrid = /* Curvilinear coordinates flag ( True/False ) */
(PID.TID 0000.0001)                   F
(PID.TID 0000.0001)     ;
(PID.TID 0000.0001) useMin4hFacEdges = /* set hFacW,S as minimum of adjacent hFacC factor */
(PID.TID 0000.0001)                   F
(PID.TID 0000.0001)     ;
(PID.TID 0000.0001) interViscAr_pCell = /* account for partial-cell in interior vert. viscosity */
(PID.TID 0000.0001)                   F
(PID.TID 0000.0001)     ;
(PID.TID 0000.0001) interDiffKr_pCell = /* account for partial-cell in interior vert. diffusion */
(PID.TID 0000.0001)                   F
(PID.TID 0000.0001)     ;
(PID.TID 0000.0001) pCellMix_select = /* option to enhance mixing near surface & bottom */
(PID.TID 0000.0001)                       0
(PID.TID 0000.0001)     ;
(PID.TID 0000.0001) selectSigmaCoord = /* Hybrid-Sigma Vert. Coordinate option */
(PID.TID 0000.0001)                       0
(PID.TID 0000.0001)     ;
(PID.TID 0000.0001) rSigmaBnd = /* r/sigma transition ( units of r ==  m ) */
(PID.TID 0000.0001)                 1.234567000000000E+05
(PID.TID 0000.0001)     ;
(PID.TID 0000.0001) rkSign =   /* index orientation relative to vertical coordinate */
(PID.TID 0000.0001)                -1.000000000000000E+00
(PID.TID 0000.0001)     ;
(PID.TID 0000.0001) gravitySign = /* gravity orientation relative to vertical coordinate */
(PID.TID 0000.0001)                -1.000000000000000E+00
(PID.TID 0000.0001)     ;
(PID.TID 0000.0001) seaLev_Z =  /* reference height of sea-level [m] */
(PID.TID 0000.0001)                 0.000000000000000E+00
(PID.TID 0000.0001)     ;
(PID.TID 0000.0001) top_Pres =  /* reference pressure at the top [Pa] */
(PID.TID 0000.0001)                 0.000000000000000E+00
(PID.TID 0000.0001)     ;
(PID.TID 0000.0001) mass2rUnit = /* convert mass per unit area [kg/m2] to r-units [m] */
(PID.TID 0000.0001)                 1.000200040008002E-03
(PID.TID 0000.0001)     ;
(PID.TID 0000.0001) rUnit2mass = /* convert r-units [m] to mass per unit area [kg/m2] */
(PID.TID 0000.0001)                 9.998000000000000E+02
(PID.TID 0000.0001)     ;
(PID.TID 0000.0001) drC =   /* C spacing ( units of r ) */
(PID.TID 0000.0001)     2 @  9.000000000000000E+02              /* K =  1:  2 */
(PID.TID 0000.0001)     ;
(PID.TID 0000.0001) drF =   /* W spacing ( units of r ) */
(PID.TID 0000.0001)                 1.800000000000000E+03       /* K =  1 */
(PID.TID 0000.0001)     ;
(PID.TID 0000.0001) delX = /* U spacing ( m - cartesian, degrees - spherical ) */
(PID.TID 0000.0001)    40 @  2.000000000000000E+03              /* I =  1: 40 */
(PID.TID 0000.0001)     ;
(PID.TID 0000.0001) delY = /* V spacing ( m - cartesian, degrees - spherical ) */
(PID.TID 0000.0001)    20 @  2.000000000000000E+03              /* J =  1: 20 */
(PID.TID 0000.0001)     ;
(PID.TID 0000.0001) xgOrigin = /* X-axis origin of West  edge (cartesian: m, lat-lon: deg) */
(PID.TID 0000.0001)                 0.000000000000000E+00
(PID.TID 0000.0001)     ;
(PID.TID 0000.0001) ygOrigin = /* Y-axis origin of South edge (cartesian: m, lat-lon: deg) */
(PID.TID 0000.0001)                 0.000000000000000E+00
(PID.TID 0000.0001)     ;
(PID.TID 0000.0001) rSphere =  /* Radius ( ignored - cartesian, m - spherical ) */
(PID.TID 0000.0001)                 6.370000000000000E+06
(PID.TID 0000.0001)     ;
(PID.TID 0000.0001) deepAtmosphere = /* Deep/Shallow Atmosphere flag (True/False) */
(PID.TID 0000.0001)                   F
(PID.TID 0000.0001)     ;
(PID.TID 0000.0001) xC =  /* xC(:,1,:,1) : P-point X coord ( deg. or m if cartesian) */
(PID.TID 0000.0001)                 1.000000000000000E+03,      /* I =  1 */
(PID.TID 0000.0001)                 3.000000000000000E+03,      /* I =  2 */
(PID.TID 0000.0001)                 5.000000000000000E+03,      /* I =  3 */
(PID.TID 0000.0001)                 7.000000000000000E+03,      /* I =  4 */
(PID.TID 0000.0001)                 9.000000000000000E+03,      /* I =  5 */
(PID.TID 0000.0001)                 1.100000000000000E+04,      /* I =  6 */
(PID.TID 0000.0001)                 1.300000000000000E+04,      /* I =  7 */
(PID.TID 0000.0001)                 1.500000000000000E+04,      /* I =  8 */
(PID.TID 0000.0001)                 1.700000000000000E+04,      /* I =  9 */
(PID.TID 0000.0001)                 1.900000000000000E+04,      /* I = 10 */
(PID.TID 0000.0001)                 2.100000000000000E+04,      /* I = 11 */
(PID.TID 0000.0001)                 2.300000000000000E+04,      /* I = 12 */
(PID.TID 0000.0001)                 2.500000000000000E+04,      /* I = 13 */
(PID.TID 0000.0001)                 2.700000000000000E+04,      /* I = 14 */
(PID.TID 0000.0001)                 2.900000000000000E+04,      /* I = 15 */
(PID.TID 0000.0001)                 3.100000000000000E+04,      /* I = 16 */
(PID.TID 0000.0001)                 3.300000000000000E+04,      /* I = 17 */
(PID.TID 0000.0001)                 3.500000000000000E+04,      /* I = 18 */
(PID.TID 0000.0001)                 3.700000000000000E+04,      /* I = 19 */
(PID.TID 0000.0001)                 3.900000000000000E+04,      /* I = 20 */
(PID.TID 0000.0001)                 4.100000000000000E+04,      /* I = 21 */
(PID.TID 0000.0001)                 4.300000000000000E+04,      /* I = 22 */
(PID.TID 0000.0001)                 4.500000000000000E+04,      /* I = 23 */
(PID.TID 0000.0001)                 4.700000000000000E+04,      /* I = 24 */
(PID.TID 0000.0001)                 4.900000000000000E+04,      /* I = 25 */
(PID.TID 0000.0001)                 5.100000000000000E+04,      /* I = 26 */
(PID.TID 0000.0001)                 5.300000000000000E+04,      /* I = 27 */
(PID.TID 0000.0001)                 5.500000000000000E+04,      /* I = 28 */
(PID.TID 0000.0001)                 5.700000000000000E+04,      /* I = 29 */
(PID.TID 0000.0001)                 5.900000000000000E+04,      /* I = 30 */
(PID.TID 0000.0001)                 6.100000000000000E+04,      /* I = 31 */
(PID.TID 0000.0001)                 6.300000000000000E+04,      /* I = 32 */
(PID.TID 0000.0001)                 6.500000000000000E+04,      /* I = 33 */
(PID.TID 0000.0001)                 6.700000000000000E+04,      /* I = 34 */
(PID.TID 0000.0001)                 6.900000000000000E+04,      /* I = 35 */
(PID.TID 0000.0001)                 7.100000000000000E+04,      /* I = 36 */
(PID.TID 0000.0001)                 7.300000000000000E+04,      /* I = 37 */
(PID.TID 0000.0001)                 7.500000000000000E+04,      /* I = 38 */
(PID.TID 0000.0001)                 7.700000000000000E+04,      /* I = 39 */
(PID.TID 0000.0001)                 7.900000000000000E+04       /* I = 40 */
(PID.TID 0000.0001)     ;
(PID.TID 0000.0001) yC =  /* yC(1,:,1,:) : P-point Y coord ( deg. or m if cartesian) */
(PID.TID 0000.0001)                 1.000000000000000E+03,      /* J =  1 */
(PID.TID 0000.0001)                 3.000000000000000E+03,      /* J =  2 */
(PID.TID 0000.0001)                 5.000000000000000E+03,      /* J =  3 */
(PID.TID 0000.0001)                 7.000000000000000E+03,      /* J =  4 */
(PID.TID 0000.0001)                 9.000000000000000E+03,      /* J =  5 */
(PID.TID 0000.0001)                 1.100000000000000E+04,      /* J =  6 */
(PID.TID 0000.0001)                 1.300000000000000E+04,      /* J =  7 */
(PID.TID 0000.0001)                 1.500000000000000E+04,      /* J =  8 */
(PID.TID 0000.0001)                 1.700000000000000E+04,      /* J =  9 */
(PID.TID 0000.0001)                 1.900000000000000E+04,      /* J = 10 */
(PID.TID 0000.0001)                 2.100000000000000E+04,      /* J = 11 */
(PID.TID 0000.0001)                 2.300000000000000E+04,      /* J = 12 */
(PID.TID 0000.0001)                 2.500000000000000E+04,      /* J = 13 */
(PID.TID 0000.0001)                 2.700000000000000E+04,      /* J = 14 */
(PID.TID 0000.0001)                 2.900000000000000E+04,      /* J = 15 */
(PID.TID 0000.0001)                 3.100000000000000E+04,      /* J = 16 */
(PID.TID 0000.0001)                 3.300000000000000E+04,      /* J = 17 */
(PID.TID 0000.0001)                 3.500000000000000E+04,      /* J = 18 */
(PID.TID 0000.0001)                 3.700000000000000E+04,      /* J = 19 */
(PID.TID 0000.0001)                 3.900000000000000E+04       /* J = 20 */
(PID.TID 0000.0001)     ;
(PID.TID 0000.0001) rcoord = /* P-point R coordinate (  units of r ) */
(PID.TID 0000.0001)                -9.000000000000000E+02       /* K =  1 */
(PID.TID 0000.0001)     ;
(PID.TID 0000.0001) rF =   /* W-Interf. R coordinate (  units of r ) */
(PID.TID 0000.0001)                 0.000000000000000E+00,      /* K =  1 */
(PID.TID 0000.0001)                -1.800000000000000E+03       /* K =  2 */
(PID.TID 0000.0001)     ;
(PID.TID 0000.0001) deepFacC = /* deep-model grid factor @ cell-Center (-) */
(PID.TID 0000.0001)                 1.000000000000000E+00       /* K =  1 */
(PID.TID 0000.0001)     ;
(PID.TID 0000.0001) deepFacF = /* deep-model grid factor @ W-Interface (-) */
(PID.TID 0000.0001)     2 @  1.000000000000000E+00              /* K =  1:  2 */
(PID.TID 0000.0001)     ;
(PID.TID 0000.0001) rotateGrid = /* use rotated grid ( True/False ) */
(PID.TID 0000.0001)                   F
(PID.TID 0000.0001)     ;
(PID.TID 0000.0001) phiEuler = /* Euler angle, rotation about original z-coordinate [rad] */
(PID.TID 0000.0001)                 0.000000000000000E+00
(PID.TID 0000.0001)     ;
(PID.TID 0000.0001) thetaEuler = /* Euler angle, rotation about new x-coordinate [rad] */
(PID.TID 0000.0001)                 0.000000000000000E+00
(PID.TID 0000.0001)     ;
(PID.TID 0000.0001) psiEuler = /* Euler angle, rotation about new z-coordinate [rad] */
(PID.TID 0000.0001)                 0.000000000000000E+00
(PID.TID 0000.0001)     ;
(PID.TID 0000.0001) dxF =  /* dxF(:,1,:,1) ( units: m ) */
(PID.TID 0000.0001)    40 @  2.000000000000000E+03              /* I =  1: 40 */
(PID.TID 0000.0001)     ;
(PID.TID 0000.0001) dxF =  /* dxF(1,:,1,:) ( units: m ) */
(PID.TID 0000.0001)    20 @  2.000000000000000E+03              /* J =  1: 20 */
(PID.TID 0000.0001)     ;
(PID.TID 0000.0001) dyF =  /* dyF(:,1,:,1) ( units: m ) */
(PID.TID 0000.0001)    40 @  2.000000000000000E+03              /* I =  1: 40 */
(PID.TID 0000.0001)     ;
(PID.TID 0000.0001) dyF =  /* dyF(1,:,1,:) ( units: m ) */
(PID.TID 0000.0001)    20 @  2.000000000000000E+03              /* J =  1: 20 */
(PID.TID 0000.0001)     ;
(PID.TID 0000.0001) dxG =  /* dxG(:,1,:,1) ( units: m ) */
(PID.TID 0000.0001)    40 @  2.000000000000000E+03              /* I =  1: 40 */
(PID.TID 0000.0001)     ;
(PID.TID 0000.0001) dxG =  /* dxG(1,:,1,:) ( units: m ) */
(PID.TID 0000.0001)    20 @  2.000000000000000E+03              /* J =  1: 20 */
(PID.TID 0000.0001)     ;
(PID.TID 0000.0001) dyG =  /* dyG(:,1,:,1) ( units: m ) */
(PID.TID 0000.0001)    40 @  2.000000000000000E+03              /* I =  1: 40 */
(PID.TID 0000.0001)     ;
(PID.TID 0000.0001) dyG =  /* dyG(1,:,1,:) ( units: m ) */
(PID.TID 0000.0001)    20 @  2.000000000000000E+03              /* J =  1: 20 */
(PID.TID 0000.0001)     ;
(PID.TID 0000.0001) dxC =  /* dxC(:,1,:,1) ( units: m ) */
(PID.TID 0000.0001)    40 @  2.000000000000000E+03              /* I =  1: 40 */
(PID.TID 0000.0001)     ;
(PID.TID 0000.0001) dxC =  /* dxC(1,:,1,:) ( units: m ) */
(PID.TID 0000.0001)    20 @  2.000000000000000E+03              /* J =  1: 20 */
(PID.TID 0000.0001)     ;
(PID.TID 0000.0001) dyC =  /* dyC(:,1,:,1) ( units: m ) */
(PID.TID 0000.0001)    40 @  2.000000000000000E+03              /* I =  1: 40 */
(PID.TID 0000.0001)     ;
(PID.TID 0000.0001) dyC =  /* dyC(1,:,1,:) ( units: m ) */
(PID.TID 0000.0001)    20 @  2.000000000000000E+03              /* J =  1: 20 */
(PID.TID 0000.0001)     ;
(PID.TID 0000.0001) dxV =  /* dxV(:,1,:,1) ( units: m ) */
(PID.TID 0000.0001)    40 @  2.000000000000000E+03              /* I =  1: 40 */
(PID.TID 0000.0001)     ;
(PID.TID 0000.0001) dxV =  /* dxV(1,:,1,:) ( units: m ) */
(PID.TID 0000.0001)    20 @  2.000000000000000E+03              /* J =  1: 20 */
(PID.TID 0000.0001)     ;
(PID.TID 0000.0001) dyU =  /* dyU(:,1,:,1) ( units: m ) */
(PID.TID 0000.0001)    40 @  2.000000000000000E+03              /* I =  1: 40 */
(PID.TID 0000.0001)     ;
(PID.TID 0000.0001) dyU =  /* dyU(1,:,1,:) ( units: m ) */
(PID.TID 0000.0001)    20 @  2.000000000000000E+03              /* J =  1: 20 */
(PID.TID 0000.0001)     ;
(PID.TID 0000.0001) rA  =  /* rA (:,1,:,1) ( units: m^2 ) */
(PID.TID 0000.0001)    40 @  4.000000000000000E+06              /* I =  1: 40 */
(PID.TID 0000.0001)     ;
(PID.TID 0000.0001) rA  =  /* rA (1,:,1,:) ( units: m^2 ) */
(PID.TID 0000.0001)    20 @  4.000000000000000E+06              /* J =  1: 20 */
(PID.TID 0000.0001)     ;
(PID.TID 0000.0001) rAw =  /* rAw(:,1,:,1) ( units: m^2 ) */
(PID.TID 0000.0001)    40 @  4.000000000000000E+06              /* I =  1: 40 */
(PID.TID 0000.0001)     ;
(PID.TID 0000.0001) rAw =  /* rAw(1,:,1,:) ( units: m^2 ) */
(PID.TID 0000.0001)    20 @  4.000000000000000E+06              /* J =  1: 20 */
(PID.TID 0000.0001)     ;
(PID.TID 0000.0001) rAs =  /* rAs(:,1,:,1) ( units: m^2 ) */
(PID.TID 0000.0001)    40 @  4.000000000000000E+06              /* I =  1: 40 */
(PID.TID 0000.0001)     ;
(PID.TID 0000.0001) rAs =  /* rAs(1,:,1,:) ( units: m^2 ) */
(PID.TID 0000.0001)    20 @  4.000000000000000E+06              /* J =  1: 20 */
(PID.TID 0000.0001)     ;
(PID.TID 0000.0001) globalArea = /* Integrated horizontal Area (m^2) */
(PID.TID 0000.0001)                 2.964000000000000E+09
(PID.TID 0000.0001)     ;
(PID.TID 0000.0001) // =======================================================
(PID.TID 0000.0001) // End of Model config. summary
(PID.TID 0000.0001) // =======================================================
(PID.TID 0000.0001) 
(PID.TID 0000.0001) == Packages configuration : Check & print summary ==
(PID.TID 0000.0001) 
(PID.TID 0000.0001) STREAMICE_CHECK: #define STREAMICE
(PID.TID 0000.0001)  max cg interations = /* user defined parameter */
(PID.TID 0000.0001)                     500
(PID.TID 0000.0001)     ;
(PID.TID 0000.0001)  max nonlin interations = /* user defined parameter */
(PID.TID 0000.0001)                     100
(PID.TID 0000.0001)     ;
(PID.TID 0000.0001)  # of timesteps per velocity solve  = /* user defined parameter */
(PID.TID 0000.0001)                       1
(PID.TID 0000.0001)     ;
(PID.TID 0000.0001)  streamice_density = /* user defined parameter */
(PID.TID 0000.0001)                 9.170000000000000E+02
(PID.TID 0000.0001)     ;
(PID.TID 0000.0001)  streamice_density_ocean_avg = /* user defined parameter */
(PID.TID 0000.0001)                 1.028000000000000E+03
(PID.TID 0000.0001)     ;
(PID.TID 0000.0001)  glens law stifness = /* user defined parameter */
(PID.TID 0000.0001)                 7.000000000000000E+02
(PID.TID 0000.0001)     ;
(PID.TID 0000.0001)  glens law exponent = /* user defined parameter */
(PID.TID 0000.0001)                 3.000000000000000E+00
(PID.TID 0000.0001)     ;
(PID.TID 0000.0001)  basal trac coeff = /* user defined parameter */
(PID.TID 0000.0001)                 5.000000000000000E+00
(PID.TID 0000.0001)     ;
(PID.TID 0000.0001)  basal exponent = /* user defined parameter */
(PID.TID 0000.0001)                 1.000000000000000E+00
(PID.TID 0000.0001)     ;
(PID.TID 0000.0001)  uniform input flux (m^2/a) = /* user defined parameter */
(PID.TID 0000.0001)                 0.000000000000000E+00
(PID.TID 0000.0001)     ;
(PID.TID 0000.0001)  time for ice vel update (sec) = /* user defined parameter */
(PID.TID 0000.0001)                 6.307200000000000E+06
(PID.TID 0000.0001)     ;
(PID.TID 0000.0001)  conj grad tolerance = /* user defined parameter */
(PID.TID 0000.0001)                 1.000000000000000E-06
(PID.TID 0000.0001)     ;
(PID.TID 0000.0001)  ice velocity nonlinear iter tol = /* user defined parameter */
(PID.TID 0000.0001)                 9.999999999999999E-21
(PID.TID 0000.0001)     ;
(PID.TID 0000.0001)  max shelf draft for analytic init (m) = /* user defined parameter */
(PID.TID 0000.0001)                 1.300000000000000E+03
(PID.TID 0000.0001)     ;
(PID.TID 0000.0001)  min shelf draft for analytic init (m) = /* user defined parameter */
(PID.TID 0000.0001)                 3.000000000000000E+02
(PID.TID 0000.0001)     ;
(PID.TID 0000.0001)  shelf extent for analytic init (km) = /* user defined parameter */
(PID.TID 0000.0001)                 7.000000000000000E+04
(PID.TID 0000.0001)     ;
(PID.TID 0000.0001)  slope scale for analytic init (km) = /* user defined parameter */
(PID.TID 0000.0001)                 6.200000000000000E+04
(PID.TID 0000.0001)     ;
(PID.TID 0000.0001)  flat shelf width for analytic init (km) = /* user defined parameter */
(PID.TID 0000.0001)                 2.000000000000000E+04
(PID.TID 0000.0001)     ;
(PID.TID 0000.0001)  flow direction for analytic init = /* user defined parameter */
(PID.TID 0000.0001)                 0.000000000000000E+00
(PID.TID 0000.0001)     ;
(PID.TID 0000.0001)  min range on no bd for no-slip (km) = /* user defined parameter */
(PID.TID 0000.0001)                 0.000000000000000E+00
(PID.TID 0000.0001)     ;
(PID.TID 0000.0001)  max range on no bd for no-slip (km) = /* user defined parameter */
(PID.TID 0000.0001)                 1.200000000000000E+05
(PID.TID 0000.0001)     ;
(PID.TID 0000.0001)  min range on so bd for no-slip (km) = /* user defined parameter */
(PID.TID 0000.0001)                 0.000000000000000E+00
(PID.TID 0000.0001)     ;
(PID.TID 0000.0001)  max range on so bd for no-slip (km) = /* user defined parameter */
(PID.TID 0000.0001)                 1.200000000000000E+05
(PID.TID 0000.0001)     ;
(PID.TID 0000.0001)  min range on east bd for no-slip (km) = /* user defined parameter */
(PID.TID 0000.0001)                -1.000000000000000E+00
(PID.TID 0000.0001)     ;
(PID.TID 0000.0001)  max range on east bd for no-slip (km) = /* user defined parameter */
(PID.TID 0000.0001)                -1.000000000000000E+00
(PID.TID 0000.0001)     ;
(PID.TID 0000.0001)  min range on west bd for no-slip (km) = /* user defined parameter */
(PID.TID 0000.0001)                -1.000000000000000E+00
(PID.TID 0000.0001)     ;
(PID.TID 0000.0001)  max range on west bd for no-slip (km) = /* user defined parameter */
(PID.TID 0000.0001)                -1.000000000000000E+00
(PID.TID 0000.0001)     ;
(PID.TID 0000.0001)  min range on no bd for no-stress (km) = /* user defined parameter */
(PID.TID 0000.0001)                 0.000000000000000E+00
(PID.TID 0000.0001)     ;
(PID.TID 0000.0001)  max range on no bd for no-stress (km) = /* user defined parameter */
(PID.TID 0000.0001)                 0.000000000000000E+00
(PID.TID 0000.0001)     ;
(PID.TID 0000.0001)  min range on so bd for no-stress (km) = /* user defined parameter */
(PID.TID 0000.0001)                 0.000000000000000E+00
(PID.TID 0000.0001)     ;
(PID.TID 0000.0001)  max range on so bd for no-stress (km) = /* user defined parameter */
(PID.TID 0000.0001)                 0.000000000000000E+00
(PID.TID 0000.0001)     ;
(PID.TID 0000.0001)  min range on east bd for no-stress (km) = /* user defined parameter */
(PID.TID 0000.0001)                -1.000000000000000E+00
(PID.TID 0000.0001)     ;
(PID.TID 0000.0001)  max range on east bd for no-stress (km) = /* user defined parameter */
(PID.TID 0000.0001)                -1.000000000000000E+00
(PID.TID 0000.0001)     ;
(PID.TID 0000.0001)  min range on west bd for no-stress (km) = /* user defined parameter */
(PID.TID 0000.0001)                -1.000000000000000E+00
(PID.TID 0000.0001)     ;
(PID.TID 0000.0001)  max range on west bd for no-stress (km) = /* user defined parameter */
(PID.TID 0000.0001)                -1.000000000000000E+00
(PID.TID 0000.0001)     ;
(PID.TID 0000.0001)  min range on no bd for FluxBdry (km) = /* user defined parameter */
(PID.TID 0000.0001)                -1.000000000000000E+00
(PID.TID 0000.0001)     ;
(PID.TID 0000.0001)  max range on no bd for FluxBdry (km) = /* user defined parameter */
(PID.TID 0000.0001)                -1.000000000000000E+00
(PID.TID 0000.0001)     ;
(PID.TID 0000.0001)  min range on so bd for FluxBdry (km) = /* user defined parameter */
(PID.TID 0000.0001)                -1.000000000000000E+00
(PID.TID 0000.0001)     ;
(PID.TID 0000.0001)  max range on so bd for FluxBdry (km) = /* user defined parameter */
(PID.TID 0000.0001)                -1.000000000000000E+00
(PID.TID 0000.0001)     ;
[...]
(PID.TID 0000.0001) BEGINNING MAIN CG LOOP
 GOT HERE CG ITERATIONS         137
(PID.TID 0000.0001) streamice linear solve number   42  137 iterations
(PID.TID 0000.0001) err/err_init  0.2335620E-08
(PID.TID 0000.0001) STREAMICE_FP_ERROR =  2.87983561975125E-06
(PID.TID 0000.0001) CONJ GRAD INIT RESID LOCAL, 11 0.1649678E+09
(PID.TID 0000.0001) CONJ GRAD INIT RESID LOCAL, 21 0.9385577E+06
(PID.TID 0000.0001) CONJ GRAD INIT RESID,  0.1288047E+05
(PID.TID 0000.0001) BEGINNING MAIN CG LOOP
 GOT HERE CG ITERATIONS         138
(PID.TID 0000.0001) streamice linear solve number   43  138 iterations
(PID.TID 0000.0001) err/err_init  0.1501916E-08
(PID.TID 0000.0001) STREAMICE_FP_ERROR =  1.83624081273592E-06
(PID.TID 0000.0001) CONJ GRAD INIT RESID LOCAL, 11 0.6746222E+08
(PID.TID 0000.0001) CONJ GRAD INIT RESID LOCAL, 21 0.3983341E+06
(PID.TID 0000.0001) CONJ GRAD INIT RESID,  0.8237752E+04
(PID.TID 0000.0001) BEGINNING MAIN CG LOOP
 GOT HERE CG ITERATIONS         138
(PID.TID 0000.0001) streamice linear solve number   44  138 iterations
(PID.TID 0000.0001) err/err_init  0.9655023E-09
(PID.TID 0000.0001) STREAMICE_FP_ERROR =  1.17103400043561E-06
(PID.TID 0000.0001) CONJ GRAD INIT RESID LOCAL, 11 0.2758976E+08
(PID.TID 0000.0001) CONJ GRAD INIT RESID LOCAL, 21 0.1703454E+06
(PID.TID 0000.0001) CONJ GRAD INIT RESID,  0.5268786E+04
(PID.TID 0000.0001) BEGINNING MAIN CG LOOP
 GOT HERE CG ITERATIONS         143
(PID.TID 0000.0001) streamice linear solve number   45  143 iterations
(PID.TID 0000.0001) err/err_init  0.6204903E-09
(PID.TID 0000.0001) STREAMICE_FP_ERROR =  7.47057015360042E-07
(PID.TID 0000.0001) CONJ GRAD INIT RESID LOCAL, 11 0.1128456E+08
(PID.TID 0000.0001) CONJ GRAD INIT RESID LOCAL, 21 0.7253246E+05
(PID.TID 0000.0001) CONJ GRAD INIT RESID,  0.3370028E+04
(PID.TID 0000.0001) BEGINNING MAIN CG LOOP
 GOT HERE CG ITERATIONS         138
(PID.TID 0000.0001) streamice linear solve number   46  138 iterations
(PID.TID 0000.0001) err/err_init  0.3986652E-09
(PID.TID 0000.0001) STREAMICE_FP_ERROR =  4.76551804240444E-07
(PID.TID 0000.0001) CONJ GRAD INIT RESID LOCAL, 11 0.4615804E+07
(PID.TID 0000.0001) CONJ GRAD INIT RESID LOCAL, 21 0.3094518E+05
(PID.TID 0000.0001) CONJ GRAD INIT RESID,  0.2155632E+04
(PID.TID 0000.0001) BEGINNING MAIN CG LOOP
 GOT HERE CG ITERATIONS         148
(PID.TID 0000.0001) streamice linear solve number   47  148 iterations
(PID.TID 0000.0001) err/err_init  0.2560798E-09
(PID.TID 0000.0001) STREAMICE_FP_ERROR =  3.04086825053673E-07
(PID.TID 0000.0001) CONJ GRAD INIT RESID LOCAL, 11 0.1888334E+07
(PID.TID 0000.0001) CONJ GRAD INIT RESID LOCAL, 21 0.1346039E+05
(PID.TID 0000.0001) CONJ GRAD INIT RESID,  0.1379055E+04
(PID.TID 0000.0001) BEGINNING MAIN CG LOOP
 GOT HERE CG ITERATIONS         139
(PID.TID 0000.0001) streamice linear solve number   48  139 iterations
(PID.TID 0000.0001) err/err_init  0.1644562E-09
(PID.TID 0000.0001) STREAMICE_FP_ERROR =  1.93997834685433E-07
(PID.TID 0000.0001) CONJ GRAD INIT RESID LOCAL, 11 0.7725759E+06
(PID.TID 0000.0001) CONJ GRAD INIT RESID LOCAL, 21 0.5654859E+04
(PID.TID 0000.0001) CONJ GRAD INIT RESID,  0.8821739E+03
(PID.TID 0000.0001) BEGINNING MAIN CG LOOP
 GOT HERE CG ITERATIONS         151
(PID.TID 0000.0001) streamice linear solve number   49  151 iterations
(PID.TID 0000.0001) err/err_init  0.1055956E-09
(PID.TID 0000.0001) STREAMICE_FP_ERROR =  1.23795643958147E-07
(PID.TID 0000.0001) CONJ GRAD INIT RESID LOCAL, 11 0.3161308E+06
(PID.TID 0000.0001) CONJ GRAD INIT RESID LOCAL, 21 0.2435222E+04
(PID.TID 0000.0001) CONJ GRAD INIT RESID,  0.5644165E+03
(PID.TID 0000.0001) BEGINNING MAIN CG LOOP
 GOT HERE CG ITERATIONS         159
(PID.TID 0000.0001) streamice linear solve number   50  159 iterations
(PID.TID 0000.0001) err/err_init  0.6778957E-10
(PID.TID 0000.0001) STREAMICE_FP_ERROR =  7.89694922787021E-08
(PID.TID 0000.0001) VELOCITY SOLVE CONVERGED,    50 iterations
 time_step_loc   0.20000000000000001     
(PID.TID 0000.0001) END STREAMICE_ADVECT_THICKNESS
(PID.TID 0000.0001) Did not write pickup because writePickupAtEnd = FALSE
 GOT HERE read topo file
(PID.TID 0000.0001)   early fc =  0.000000000000000D+00
(PID.TID 0000.0001)   local fc =  0.547377102693618D+09
(PID.TID 0000.0001)  global fc =  0.547377102693618D+09
(PID.TID 0000.0001) grdchk perturb(-)fc: fcpertminus =  5.47377102693618E+08
grad-res -------------------------------
 grad-res     0    4   16   10    1    1    1    1   5.47376975077E+08  5.47376847454E+08  5.47377102694E+08
 grad-res     0    4    4  196    0    1    1    1  -1.27619952353E+03 -1.27619946301E+03  4.74232454417E-08
(PID.TID 0000.0001)  ADM  ref_cost_function      =  5.47376975077351E+08
(PID.TID 0000.0001)  ADM  adjoint_gradient       = -1.27619952353136E+03
(PID.TID 0000.0001)  ADM  finite-diff_grad       = -1.27619946300983E+03
(PID.TID 0000.0001) ====== End of gradient-check number   4 (ierr=  0) =======
(PID.TID 0000.0001) 
(PID.TID 0000.0001) // =======================================================
(PID.TID 0000.0001) // Gradient check results  >>> START <<<
(PID.TID 0000.0001) // =======================================================
(PID.TID 0000.0001) 
(PID.TID 0000.0001)  EPS = 1.000000E-01 ; grdchk CTRL var/file name: "xx_bdot_streamice"
(PID.TID 0000.0001) 
(PID.TID 0000.0001) grdchk output h.p:  Id Itile Jtile LAYER   bi   bj   X(Id)           X(Id)+/-EPS
(PID.TID 0000.0001) grdchk output h.c:  Id  FC                   FC1                  FC2
(PID.TID 0000.0001) grdchk output h.g:  Id     FC1-FC2/(2*EPS)      ADJ GRAD(FC)         1-FDGRD/ADGRD
(PID.TID 0000.0001) 
(PID.TID 0000.0001) grdchk output (p):   1    10    10     1    1    1   0.000000000E+00 -1.000000000E-01
(PID.TID 0000.0001) grdchk output (c):   1  5.4737697507735E+08  5.4737692913507E+08  5.4737702101915E+08
(PID.TID 0000.0001) grdchk output (g):   1    -4.5942041099072E+02 -4.5941504746392E+02 -1.1674686810625E-05
(PID.TID 0000.0001) 
(PID.TID 0000.0001) grdchk output (p):   2    12    10     1    1    1   0.000000000E+00 -1.000000000E-01
(PID.TID 0000.0001) grdchk output (c):   2  5.4737697507735E+08  5.4737689088973E+08  5.4737705926459E+08
(PID.TID 0000.0001) grdchk output (g):   2    -8.4187433540821E+02 -8.4186830180540E+02 -7.1669200540914E-06
(PID.TID 0000.0001) 
(PID.TID 0000.0001) grdchk output (p):   3    14    10     1    1    1   0.000000000E+00 -1.000000000E-01
(PID.TID 0000.0001) grdchk output (c):   3  5.4737697507735E+08  5.4737686436003E+08  5.4737708578910E+08
(PID.TID 0000.0001) grdchk output (g):   3    -1.1071453642845E+03 -1.1071425846374E+03 -2.5106496674976E-06
(PID.TID 0000.0001) 
(PID.TID 0000.0001) grdchk output (p):   4    16    10     1    1    1   0.000000000E+00 -1.000000000E-01
(PID.TID 0000.0001) grdchk output (c):   4  5.4737697507735E+08  5.4737684745373E+08  5.4737710269362E+08
(PID.TID 0000.0001) grdchk output (g):   4    -1.2761994630098E+03 -1.2761995235314E+03  4.7423245441713E-08
(PID.TID 0000.0001) 
(PID.TID 0000.0001) grdchk  summary  :  RMS of    4 ratios =  6.9636317016526E-06
(PID.TID 0000.0001) 
(PID.TID 0000.0001) // =======================================================
(PID.TID 0000.0001) // Gradient check results  >>> END <<<
(PID.TID 0000.0001) // =======================================================
(PID.TID 0000.0001) 
(PID.TID 0000.0001)   Seconds in section "ALL                    [THE_MODEL_MAIN]":
(PID.TID 0000.0001)           User time:   297.29761672113091
(PID.TID 0000.0001)         System time:  0.75877198670059443
(PID.TID 0000.0001)     Wall clock time:   299.73899507522583
(PID.TID 0000.0001)          No. starts:           1
(PID.TID 0000.0001)           No. stops:           1
(PID.TID 0000.0001)   Seconds in section "INITIALISE_FIXED       [THE_MODEL_MAIN]":
(PID.TID 0000.0001)           User time:   1.9310998730361462E-002
(PID.TID 0000.0001)         System time:   1.6361999325454235E-002
(PID.TID 0000.0001)     Wall clock time:  0.24522614479064941
(PID.TID 0000.0001)          No. starts:           1
(PID.TID 0000.0001)           No. stops:           1
(PID.TID 0000.0001)   Seconds in section "THE_MAIN_LOOP_B":
(PID.TID 0000.0001)           User time:   164.48267720080912
(PID.TID 0000.0001)         System time:  0.67903502471745014
(PID.TID 0000.0001)     Wall clock time:   165.82621002197266
(PID.TID 0000.0001)          No. starts:           1
(PID.TID 0000.0001)           No. stops:           1
(PID.TID 0000.0001)   Seconds in section "FORWARD_STEP        [MAIN_DO_LOOP]":
(PID.TID 0000.0001)           User time:   147.51645122468472
(PID.TID 0000.0001)         System time:   3.1980000436306000E-002
(PID.TID 0000.0001)     Wall clock time:   147.99316406250000
(PID.TID 0000.0001)          No. starts:          30
(PID.TID 0000.0001)           No. stops:          30
(PID.TID 0000.0001)   Seconds in section "LOAD_FIELDS_DRIVER  [FORWARD_STEP]":
(PID.TID 0000.0001)           User time:   7.4987709522247314E-003
(PID.TID 0000.0001)         System time:   1.4738813042640686E-003
(PID.TID 0000.0001)     Wall clock time:   1.6244173049926758E-002
(PID.TID 0000.0001)          No. starts:          33
(PID.TID 0000.0001)           No. stops:          33
(PID.TID 0000.0001)   Seconds in section "EXTERNAL_FLDS_LOAD [LOAD_FLDS_DRIVER]":
(PID.TID 0000.0001)           User time:   3.3372640609741211E-004
(PID.TID 0000.0001)         System time:   6.6041946411132812E-005
(PID.TID 0000.0001)     Wall clock time:   3.2830238342285156E-004
(PID.TID 0000.0001)          No. starts:          36
(PID.TID 0000.0001)           No. stops:          36
(PID.TID 0000.0001)   Seconds in section "CTRL_MAP_FORCING  [FORWARD_STEP]":
(PID.TID 0000.0001)           User time:   1.4431226998567581E-002
(PID.TID 0000.0001)         System time:   2.1691285073757172E-003
(PID.TID 0000.0001)     Wall clock time:   1.6755580902099609E-002
(PID.TID 0000.0001)          No. starts:          33
(PID.TID 0000.0001)           No. stops:          33
(PID.TID 0000.0001)   Seconds in section "DO_ATMOSPHERIC_PHYS [FORWARD_STEP]":
(PID.TID 0000.0001)           User time:   4.8511475324630737E-004
(PID.TID 0000.0001)         System time:   4.3027102947235107E-005
(PID.TID 0000.0001)     Wall clock time:   4.7159194946289062E-004
(PID.TID 0000.0001)          No. starts:          33
(PID.TID 0000.0001)           No. stops:          33
(PID.TID 0000.0001)   Seconds in section "DO_OCEANIC_PHYS     [FORWARD_STEP]":
(PID.TID 0000.0001)           User time:   4.0710568428039551E-003
(PID.TID 0000.0001)         System time:   3.9700418710708618E-004
(PID.TID 0000.0001)     Wall clock time:   4.4374465942382812E-003
(PID.TID 0000.0001)          No. starts:          33
(PID.TID 0000.0001)           No. stops:          33
(PID.TID 0000.0001)   Seconds in section "STREAMICE_TIMESTEP [FORWARD_STEP]":
(PID.TID 0000.0001)           User time:   177.03172806650400
(PID.TID 0000.0001)         System time:   3.0025843530893326E-002
(PID.TID 0000.0001)     Wall clock time:   177.54850745201111
(PID.TID 0000.0001)          No. starts:          36
(PID.TID 0000.0001)           No. stops:          36
(PID.TID 0000.0001)   Seconds in section "STREAMICE_VEL_SOLVE":
(PID.TID 0000.0001)           User time:   191.76667481288314
(PID.TID 0000.0001)         System time:   2.8714891523122787E-002
(PID.TID 0000.0001)     Wall clock time:   192.29152274131775
(PID.TID 0000.0001)          No. starts:          39
(PID.TID 0000.0001)           No. stops:          39
(PID.TID 0000.0001)   Seconds in section "STREAMICE_CG_SOLVE":
(PID.TID 0000.0001)           User time:   168.28590261936188
(PID.TID 0000.0001)         System time:   1.5751704573631287E-002
(PID.TID 0000.0001)     Wall clock time:   168.76003456115723
(PID.TID 0000.0001)          No. starts:        2560
(PID.TID 0000.0001)           No. stops:        2560
(PID.TID 0000.0001)   Seconds in section "STREAMICE_ADVECT_THICKNESS":
(PID.TID 0000.0001)           User time:   2.3059844970703125E-002
(PID.TID 0000.0001)         System time:   0.0000000000000000
(PID.TID 0000.0001)     Wall clock time:   2.3111343383789062E-002
(PID.TID 0000.0001)          No. starts:          39
(PID.TID 0000.0001)           No. stops:          39
(PID.TID 0000.0001)   Seconds in section "THERMODYNAMICS      [FORWARD_STEP]":
(PID.TID 0000.0001)           User time:   3.0803680419921875E-004
(PID.TID 0000.0001)         System time:   9.0003013610839844E-006
(PID.TID 0000.0001)     Wall clock time:   2.8514862060546875E-004
(PID.TID 0000.0001)          No. starts:          33
(PID.TID 0000.0001)           No. stops:          33
(PID.TID 0000.0001)   Seconds in section "DYNAMICS            [FORWARD_STEP]":
(PID.TID 0000.0001)           User time:   4.2972564697265625E-003
(PID.TID 0000.0001)         System time:   4.6199560165405273E-004
(PID.TID 0000.0001)     Wall clock time:   4.7883987426757812E-003
(PID.TID 0000.0001)          No. starts:          33
(PID.TID 0000.0001)           No. stops:          33
(PID.TID 0000.0001)   Seconds in section "MOM_CORRECTION_STEP [FORWARD_STEP]":
(PID.TID 0000.0001)           User time:   1.9454956054687500E-004
(PID.TID 0000.0001)         System time:   2.7000904083251953E-005
(PID.TID 0000.0001)     Wall clock time:   2.8610229492187500E-004
(PID.TID 0000.0001)          No. starts:          33
(PID.TID 0000.0001)           No. stops:          33
(PID.TID 0000.0001)   Seconds in section "TRC_CORRECTION_STEP [FORWARD_STEP]":
(PID.TID 0000.0001)           User time:   3.1900405883789062E-004
(PID.TID 0000.0001)         System time:   2.4020671844482422E-005
(PID.TID 0000.0001)     Wall clock time:   2.7823448181152344E-004
(PID.TID 0000.0001)          No. starts:          33
(PID.TID 0000.0001)           No. stops:          33
(PID.TID 0000.0001)   Seconds in section "BLOCKING_EXCHANGES  [FORWARD_STEP]":
(PID.TID 0000.0001)           User time:   1.5635490417480469E-003
(PID.TID 0000.0001)         System time:   1.6900897026062012E-004
(PID.TID 0000.0001)     Wall clock time:   1.7802715301513672E-003
(PID.TID 0000.0001)          No. starts:          33
(PID.TID 0000.0001)           No. stops:          33
(PID.TID 0000.0001)   Seconds in section "COST_TILE           [FORWARD_STEP]":
(PID.TID 0000.0001)           User time:   4.2486190795898438E-004
(PID.TID 0000.0001)         System time:   4.3958425521850586E-005
(PID.TID 0000.0001)     Wall clock time:   4.8184394836425781E-004
(PID.TID 0000.0001)          No. starts:          33
(PID.TID 0000.0001)           No. stops:          33
(PID.TID 0000.0001)   Seconds in section "DO_THE_MODEL_IO     [FORWARD_STEP]":
(PID.TID 0000.0001)           User time:   4.7159194946289062E-004
(PID.TID 0000.0001)         System time:   2.0120181143283844E-003
(PID.TID 0000.0001)     Wall clock time:   1.7116546630859375E-002
(PID.TID 0000.0001)          No. starts:          33
(PID.TID 0000.0001)           No. stops:          33
(PID.TID 0000.0001)   Seconds in section "DO_WRITE_PICKUP     [FORWARD_STEP]":
(PID.TID 0000.0001)           User time:   2.8414726257324219E-003
(PID.TID 0000.0001)         System time:   2.9973685741424561E-005
(PID.TID 0000.0001)     Wall clock time:   1.8078327178955078E-002
(PID.TID 0000.0001)          No. starts:          33
(PID.TID 0000.0001)           No. stops:          33
(PID.TID 0000.0001)   Seconds in section "CTRL_PACK           [THE_MODEL_MAIN]":
(PID.TID 0000.0001)           User time:   5.1879882812500000E-004
(PID.TID 0000.0001)         System time:   9.9802017211914062E-004
(PID.TID 0000.0001)     Wall clock time:   5.5210590362548828E-003
(PID.TID 0000.0001)          No. starts:           1
(PID.TID 0000.0001)           No. stops:           1
(PID.TID 0000.0001)   Seconds in section "CTRL_PACK     [THE_MODEL_MAIN]":
(PID.TID 0000.0001)           User time:   1.4038085937500000E-003
(PID.TID 0000.0001)         System time:   2.0265579223632812E-006
(PID.TID 0000.0001)     Wall clock time:   5.4931640625000000E-003
(PID.TID 0000.0001)          No. starts:           1
(PID.TID 0000.0001)           No. stops:           1
(PID.TID 0000.0001)   Seconds in section "GRDCHK_MAIN         [THE_MODEL_MAIN]":
(PID.TID 0000.0001)           User time:   132.79348754882812
(PID.TID 0000.0001)         System time:   6.2348961830139160E-002
(PID.TID 0000.0001)     Wall clock time:   133.65633296966553
(PID.TID 0000.0001)          No. starts:           1
(PID.TID 0000.0001)           No. stops:           1
(PID.TID 0000.0001)   Seconds in section "INITIALISE_VARIA    [THE_MAIN_LOOP]":
(PID.TID 0000.0001)           User time:   4.2037963867187500E-002
(PID.TID 0000.0001)         System time:   3.7212014198303223E-002
(PID.TID 0000.0001)     Wall clock time:  0.45161271095275879
(PID.TID 0000.0001)          No. starts:           9
(PID.TID 0000.0001)           No. stops:           9
(PID.TID 0000.0001)   Seconds in section "MAIN LOOP           [THE_MAIN_LOOP]":
(PID.TID 0000.0001)           User time:   132.74580383300781
(PID.TID 0000.0001)         System time:   2.0931959152221680E-002
(PID.TID 0000.0001)     Wall clock time:   133.14688682556152
(PID.TID 0000.0001)          No. starts:           9
(PID.TID 0000.0001)           No. stops:           9
(PID.TID 0000.0001)   Seconds in section "MAIN_DO_LOOP        [THE_MAIN_LOOP]":
(PID.TID 0000.0001)           User time:   132.74290466308594
(PID.TID 0000.0001)         System time:   2.0912945270538330E-002
(PID.TID 0000.0001)     Wall clock time:   133.14288568496704
(PID.TID 0000.0001)          No. starts:          27
(PID.TID 0000.0001)           No. stops:          27
(PID.TID 0000.0001)   Seconds in section "COST_FINAL         [ADJOINT SPIN-DOWN]":
(PID.TID 0000.0001)           User time:   2.4566650390625000E-003
(PID.TID 0000.0001)         System time:   9.5367431640625000E-007
(PID.TID 0000.0001)     Wall clock time:   3.6051273345947266E-003
(PID.TID 0000.0001)          No. starts:           9
(PID.TID 0000.0001)           No. stops:           9
(PID.TID 0000.0001) // ======================================================
(PID.TID 0000.0001) // Tile <-> Tile communication statistics
(PID.TID 0000.0001) // ======================================================
(PID.TID 0000.0001) // o Tile number: 000001
(PID.TID 0000.0001) //         No. X exchanges =              0
(PID.TID 0000.0001) //            Max. X spins =              0
(PID.TID 0000.0001) //            Min. X spins =     1000000000
(PID.TID 0000.0001) //          Total. X spins =              0
(PID.TID 0000.0001) //            Avg. X spins =       0.00E+00
(PID.TID 0000.0001) //         No. Y exchanges =              0
(PID.TID 0000.0001) //            Max. Y spins =              0
(PID.TID 0000.0001) //            Min. Y spins =     1000000000
(PID.TID 0000.0001) //          Total. Y spins =              0
(PID.TID 0000.0001) //            Avg. Y spins =       0.00E+00
(PID.TID 0000.0001) // o Tile number: 000002
(PID.TID 0000.0001) //         No. X exchanges =              0
(PID.TID 0000.0001) //            Max. X spins =              0
(PID.TID 0000.0001) //            Min. X spins =     1000000000
(PID.TID 0000.0001) //          Total. X spins =              0
(PID.TID 0000.0001) //            Avg. X spins =       0.00E+00
(PID.TID 0000.0001) //         No. Y exchanges =              0
(PID.TID 0000.0001) //            Max. Y spins =              0
(PID.TID 0000.0001) //            Min. Y spins =     1000000000
(PID.TID 0000.0001) //          Total. Y spins =              0
(PID.TID 0000.0001) //            Avg. Y spins =       0.00E+00
(PID.TID 0000.0001) // o Thread number: 000001
(PID.TID 0000.0001) //            No. barriers =        3076410
(PID.TID 0000.0001) //      Max. barrier spins =              1
(PID.TID 0000.0001) //      Min. barrier spins =              1
(PID.TID 0000.0001) //     Total barrier spins =        3076410
(PID.TID 0000.0001) //      Avg. barrier spins =       1.00E+00
PROGRAM MAIN: Execution ended Normally
